# generated using pymatgen
data_Hf39Zr39Ti38Pd38Ru38(C3O2)512
_symmetry_space_group_name_H-M   'P 1'
_cell_length_a   41.48600000
_cell_length_b   41.48600000
_cell_length_c   41.48600000
_cell_angle_alpha   90.00000000
_cell_angle_beta   90.00000000
_cell_angle_gamma   90.00000000
_symmetry_Int_Tables_number   1
_chemical_formula_structural   Hf39Zr39Ti38Pd38Ru38(C3O2)512
_chemical_formula_sum   'Hf39 Zr39 Ti38 Ru38 Pd38 C1536 O1024'
_cell_volume   71401.06489926
_cell_formula_units_Z   1
loop_
 _symmetry_equiv_pos_site_id
 _symmetry_equiv_pos_as_xyz
  1  'x, y, z'
loop_
 _atom_site_type_symbol
 _atom_site_label
 _atom_site_symmetry_multiplicity
 _atom_site_fract_x
 _atom_site_fract_y
 _atom_site_fract_z
 _atom_site_occupancy
  Hf  Zr  1  0.06020000  0.00000000  0.00000000  1
  Ti  Zr  1  0.06020000  0.00000000  0.50000000  1
  Ru  Zr  1  0.06020000  0.50000000  0.00000000  1
  Ti  Zr  1  0.06020000  0.50000000  0.50000000  1
  Hf  Zr  1  0.56020000  0.00000000  0.00000000  1
  Ru  Zr  1  0.56020000  0.00000000  0.50000000  1
  Zr  Zr6  1  0.56020000  0.50000000  0.00000000  1
  Hf  Zr  1  0.56020000  0.50000000  0.50000000  1
  Ru  Zr  1  0.00000000  0.06020000  0.00000000  1
  Hf  Zr  1  0.00000000  0.06020000  0.50000000  1
  Pd  Zr  1  0.00000000  0.56020000  0.00000000  1
  Zr  Zr11  1  0.00000000  0.56020000  0.50000000  1
  Pd  Zr  1  0.50000000  0.06020000  0.00000000  1
  Hf  Zr  1  0.50000000  0.06020000  0.50000000  1
  Ti  Zr  1  0.50000000  0.56020000  0.00000000  1
  Ti  Zr  1  0.50000000  0.56020000  0.50000000  1
  Ti  Zr  1  0.43980000  0.00000000  0.00000000  1
  Ti  Zr  1  0.43980000  0.00000000  0.50000000  1
  Ru  Zr  1  0.43980000  0.50000000  0.00000000  1
  Pd  Zr  1  0.43980000  0.50000000  0.50000000  1
  Ru  Zr  1  0.93980000  0.00000000  0.00000000  1
  Ru  Zr  1  0.93980000  0.00000000  0.50000000  1
  Ru  Zr  1  0.93980000  0.50000000  0.00000000  1
  Zr  Zr23  1  0.93980000  0.50000000  0.50000000  1
  Ru  Zr  1  0.00000000  0.43980000  0.00000000  1
  Ru  Zr  1  0.00000000  0.43980000  0.50000000  1
  Ru  Zr  1  0.00000000  0.93980000  0.00000000  1
  Pd  Zr  1  0.00000000  0.93980000  0.50000000  1
  Ti  Zr  1  0.50000000  0.43980000  0.00000000  1
  Hf  Zr  1  0.50000000  0.43980000  0.50000000  1
  Zr  Zr30  1  0.50000000  0.93980000  0.00000000  1
  Hf  Zr  1  0.50000000  0.93980000  0.50000000  1
  Zr  Zr32  1  0.00000000  0.00000000  0.43980000  1
  Ru  Zr  1  0.00000000  0.00000000  0.93980000  1
  Zr  Zr34  1  0.00000000  0.50000000  0.43980000  1
  Ru  Zr  1  0.00000000  0.50000000  0.93980000  1
  Pd  Zr  1  0.50000000  0.00000000  0.43980000  1
  Pd  Zr  1  0.50000000  0.00000000  0.93980000  1
  Zr  Zr38  1  0.50000000  0.50000000  0.43980000  1
  Ru  Zr  1  0.50000000  0.50000000  0.93980000  1
  Ru  Zr  1  0.00000000  0.00000000  0.06020000  1
  Hf  Zr  1  0.00000000  0.00000000  0.56020000  1
  Hf  Zr  1  0.00000000  0.50000000  0.06020000  1
  Zr  Zr43  1  0.00000000  0.50000000  0.56020000  1
  Ti  Zr  1  0.50000000  0.00000000  0.06020000  1
  Ti  Zr  1  0.50000000  0.00000000  0.56020000  1
  Ti  Zr  1  0.50000000  0.50000000  0.06020000  1
  Hf  Zr  1  0.50000000  0.50000000  0.56020000  1
  Zr  Zr48  1  0.06020000  0.25000000  0.25000000  1
  Ti  Zr  1  0.06020000  0.25000000  0.75000000  1
  Zr  Zr50  1  0.06020000  0.75000000  0.25000000  1
  Pd  Zr  1  0.06020000  0.75000000  0.75000000  1
  Zr  Zr52  1  0.56020000  0.25000000  0.25000000  1
  Pd  Zr  1  0.56020000  0.25000000  0.75000000  1
  Ti  Zr  1  0.56020000  0.75000000  0.25000000  1
  Ti  Zr  1  0.56020000  0.75000000  0.75000000  1
  Zr  Zr56  1  0.00000000  0.31020000  0.25000000  1
  Ru  Zr  1  0.00000000  0.31020000  0.75000000  1
  Pd  Zr  1  0.00000000  0.81020000  0.25000000  1
  Ru  Zr  1  0.00000000  0.81020000  0.75000000  1
  Ru  Zr  1  0.50000000  0.31020000  0.25000000  1
  Ti  Zr  1  0.50000000  0.31020000  0.75000000  1
  Zr  Zr62  1  0.50000000  0.81020000  0.25000000  1
  Zr  Zr63  1  0.50000000  0.81020000  0.75000000  1
  Zr  Zr64  1  0.43980000  0.25000000  0.25000000  1
  Ti  Zr  1  0.43980000  0.25000000  0.75000000  1
  Pd  Zr  1  0.43980000  0.75000000  0.25000000  1
  Hf  Zr  1  0.43980000  0.75000000  0.75000000  1
  Pd  Zr  1  0.93980000  0.25000000  0.25000000  1
  Hf  Zr  1  0.93980000  0.25000000  0.75000000  1
  Hf  Zr  1  0.93980000  0.75000000  0.25000000  1
  Ru  Zr  1  0.93980000  0.75000000  0.75000000  1
  Zr  Zr72  1  0.00000000  0.18980000  0.25000000  1
  Ru  Zr  1  0.00000000  0.18980000  0.75000000  1
  Pd  Zr  1  0.00000000  0.68980000  0.25000000  1
  Zr  Zr75  1  0.00000000  0.68980000  0.75000000  1
  Pd  Zr  1  0.50000000  0.18980000  0.25000000  1
  Hf  Zr  1  0.50000000  0.18980000  0.75000000  1
  Pd  Zr  1  0.50000000  0.68980000  0.25000000  1
  Pd  Zr  1  0.50000000  0.68980000  0.75000000  1
  Zr  Zr80  1  0.00000000  0.25000000  0.18980000  1
  Zr  Zr81  1  0.00000000  0.25000000  0.68980000  1
  Ru  Zr  1  0.00000000  0.75000000  0.18980000  1
  Zr  Zr83  1  0.00000000  0.75000000  0.68980000  1
  Hf  Zr  1  0.50000000  0.25000000  0.18980000  1
  Zr  Zr85  1  0.50000000  0.25000000  0.68980000  1
  Ru  Zr  1  0.50000000  0.75000000  0.18980000  1
  Hf  Zr  1  0.50000000  0.75000000  0.68980000  1
  Ti  Zr  1  0.00000000  0.25000000  0.31020000  1
  Zr  Zr89  1  0.00000000  0.25000000  0.81020000  1
  Hf  Zr  1  0.00000000  0.75000000  0.31020000  1
  Ru  Zr  1  0.00000000  0.75000000  0.81020000  1
  Hf  Zr  1  0.50000000  0.25000000  0.31020000  1
  Hf  Zr  1  0.50000000  0.25000000  0.81020000  1
  Ru  Zr  1  0.50000000  0.75000000  0.31020000  1
  Ti  Zr  1  0.50000000  0.75000000  0.81020000  1
  Pd  Zr  1  0.31020000  0.00000000  0.25000000  1
  Pd  Zr  1  0.31020000  0.00000000  0.75000000  1
  Zr  Zr98  1  0.31020000  0.50000000  0.25000000  1
  Ru  Zr  1  0.31020000  0.50000000  0.75000000  1
  Hf  Zr  1  0.81020000  0.00000000  0.25000000  1
  Pd  Zr  1  0.81020000  0.00000000  0.75000000  1
  Zr  Zr102  1  0.81020000  0.50000000  0.25000000  1
  Pd  Zr  1  0.81020000  0.50000000  0.75000000  1
  Ti  Zr  1  0.25000000  0.06020000  0.25000000  1
  Hf  Zr  1  0.25000000  0.06020000  0.75000000  1
  Pd  Zr  1  0.25000000  0.56020000  0.25000000  1
  Pd  Zr  1  0.25000000  0.56020000  0.75000000  1
  Hf  Zr  1  0.75000000  0.06020000  0.25000000  1
  Ti  Zr  1  0.75000000  0.06020000  0.75000000  1
  Hf  Zr  1  0.75000000  0.56020000  0.25000000  1
  Zr  Zr111  1  0.75000000  0.56020000  0.75000000  1
  Ru  Zr  1  0.18980000  0.00000000  0.25000000  1
  Ti  Zr  1  0.18980000  0.00000000  0.75000000  1
  Zr  Zr114  1  0.18980000  0.50000000  0.25000000  1
  Ti  Zr  1  0.18980000  0.50000000  0.75000000  1
  Zr  Zr116  1  0.68980000  0.00000000  0.25000000  1
  Hf  Zr  1  0.68980000  0.00000000  0.75000000  1
  Hf  Zr  1  0.68980000  0.50000000  0.25000000  1
  Ru  Zr  1  0.68980000  0.50000000  0.75000000  1
  Hf  Zr  1  0.25000000  0.43980000  0.25000000  1
  Hf  Zr  1  0.25000000  0.43980000  0.75000000  1
  Pd  Zr  1  0.25000000  0.93980000  0.25000000  1
  Ti  Zr  1  0.25000000  0.93980000  0.75000000  1
  Pd  Zr  1  0.75000000  0.43980000  0.25000000  1
  Zr  Zr125  1  0.75000000  0.43980000  0.75000000  1
  Ti  Zr  1  0.75000000  0.93980000  0.25000000  1
  Pd  Zr  1  0.75000000  0.93980000  0.75000000  1
  Ru  Zr  1  0.25000000  0.00000000  0.18980000  1
  Zr  Zr129  1  0.25000000  0.00000000  0.68980000  1
  Zr  Zr130  1  0.25000000  0.50000000  0.18980000  1
  Pd  Zr  1  0.25000000  0.50000000  0.68980000  1
  Ru  Zr  1  0.75000000  0.00000000  0.18980000  1
  Pd  Zr  1  0.75000000  0.00000000  0.68980000  1
  Ti  Zr  1  0.75000000  0.50000000  0.18980000  1
  Hf  Zr  1  0.75000000  0.50000000  0.68980000  1
  Pd  Zr  1  0.25000000  0.00000000  0.31020000  1
  Pd  Zr  1  0.25000000  0.00000000  0.81020000  1
  Ru  Zr  1  0.25000000  0.50000000  0.31020000  1
  Ti  Zr  1  0.25000000  0.50000000  0.81020000  1
  Ru  Zr  1  0.75000000  0.00000000  0.31020000  1
  Hf  Zr  1  0.75000000  0.00000000  0.81020000  1
  Hf  Zr  1  0.75000000  0.50000000  0.31020000  1
  Hf  Zr  1  0.75000000  0.50000000  0.81020000  1
  Zr  Zr144  1  0.31020000  0.25000000  0.00000000  1
  Ti  Zr  1  0.31020000  0.25000000  0.50000000  1
  Ru  Zr  1  0.31020000  0.75000000  0.00000000  1
  Ru  Zr  1  0.31020000  0.75000000  0.50000000  1
  Ti  Zr  1  0.81020000  0.25000000  0.00000000  1
  Hf  Zr  1  0.81020000  0.25000000  0.50000000  1
  Zr  Zr150  1  0.81020000  0.75000000  0.00000000  1
  Ti  Zr  1  0.81020000  0.75000000  0.50000000  1
  Ti  Zr  1  0.25000000  0.31020000  0.00000000  1
  Zr  Zr153  1  0.25000000  0.31020000  0.50000000  1
  Ti  Zr  1  0.25000000  0.81020000  0.00000000  1
  Ru  Zr  1  0.25000000  0.81020000  0.50000000  1
  Zr  Zr156  1  0.75000000  0.31020000  0.00000000  1
  Hf  Zr  1  0.75000000  0.31020000  0.50000000  1
  Ru  Zr  1  0.75000000  0.81020000  0.00000000  1
  Ti  Zr  1  0.75000000  0.81020000  0.50000000  1
  Ru  Zr  1  0.18980000  0.25000000  0.00000000  1
  Zr  Zr161  1  0.18980000  0.25000000  0.50000000  1
  Pd  Zr  1  0.18980000  0.75000000  0.00000000  1
  Ti  Zr  1  0.18980000  0.75000000  0.50000000  1
  Zr  Zr164  1  0.68980000  0.25000000  0.00000000  1
  Hf  Zr  1  0.68980000  0.25000000  0.50000000  1
  Ti  Zr  1  0.68980000  0.75000000  0.00000000  1
  Ti  Zr  1  0.68980000  0.75000000  0.50000000  1
  Zr  Zr168  1  0.25000000  0.18980000  0.00000000  1
  Ru  Zr  1  0.25000000  0.18980000  0.50000000  1
  Pd  Zr  1  0.25000000  0.68980000  0.00000000  1
  Ti  Zr  1  0.25000000  0.68980000  0.50000000  1
  Hf  Zr  1  0.75000000  0.18980000  0.00000000  1
  Hf  Zr  1  0.75000000  0.18980000  0.50000000  1
  Zr  Zr174  1  0.75000000  0.68980000  0.00000000  1
  Hf  Zr  1  0.75000000  0.68980000  0.50000000  1
  Ti  Zr  1  0.25000000  0.25000000  0.43980000  1
  Hf  Zr  1  0.25000000  0.25000000  0.93980000  1
  Pd  Zr  1  0.25000000  0.75000000  0.43980000  1
  Ti  Zr  1  0.25000000  0.75000000  0.93980000  1
  Pd  Zr  1  0.75000000  0.25000000  0.43980000  1
  Ru  Zr  1  0.75000000  0.25000000  0.93980000  1
  Pd  Zr  1  0.75000000  0.75000000  0.43980000  1
  Pd  Zr  1  0.75000000  0.75000000  0.93980000  1
  Ti  Zr  1  0.25000000  0.25000000  0.06020000  1
  Pd  Zr  1  0.25000000  0.25000000  0.56020000  1
  Pd  Zr  1  0.25000000  0.75000000  0.06020000  1
  Pd  Zr  1  0.25000000  0.75000000  0.56020000  1
  Zr  Zr188  1  0.75000000  0.25000000  0.06020000  1
  Ru  Zr  1  0.75000000  0.25000000  0.56020000  1
  Hf  Zr  1  0.75000000  0.75000000  0.06020000  1
  Pd  Zr  1  0.75000000  0.75000000  0.56020000  1
  C  C11  1  0.07365000  0.00000000  0.42635000  1.0
  C  C11  1  0.07365000  0.00000000  0.92635000  1.0
  C  C11  1  0.07365000  0.50000000  0.42635000  1.0
  C  C11  1  0.07365000  0.50000000  0.92635000  1.0
  C  C11  1  0.57365000  0.00000000  0.42635000  1.0
  C  C11  1  0.57365000  0.00000000  0.92635000  1.0
  C  C11  1  0.57365000  0.50000000  0.42635000  1.0
  C  C11  1  0.57365000  0.50000000  0.92635000  1.0
  C  C11  1  0.00000000  0.07365000  0.42635000  1.0
  C  C11  1  0.00000000  0.07365000  0.92635000  1.0
  C  C11  1  0.00000000  0.57365000  0.42635000  1.0
  C  C11  1  0.00000000  0.57365000  0.92635000  1.0
  C  C11  1  0.50000000  0.07365000  0.42635000  1.0
  C  C11  1  0.50000000  0.07365000  0.92635000  1.0
  C  C11  1  0.50000000  0.57365000  0.42635000  1.0
  C  C11  1  0.50000000  0.57365000  0.92635000  1.0
  C  C11  1  0.42635000  0.00000000  0.42635000  1.0
  C  C11  1  0.42635000  0.00000000  0.92635000  1.0
  C  C11  1  0.42635000  0.50000000  0.42635000  1.0
  C  C11  1  0.42635000  0.50000000  0.92635000  1.0
  C  C11  1  0.92635000  0.00000000  0.42635000  1.0
  C  C11  1  0.92635000  0.00000000  0.92635000  1.0
  C  C11  1  0.92635000  0.50000000  0.42635000  1.0
  C  C11  1  0.92635000  0.50000000  0.92635000  1.0
  C  C11  1  0.00000000  0.42635000  0.42635000  1.0
  C  C11  1  0.00000000  0.42635000  0.92635000  1.0
  C  C11  1  0.00000000  0.92635000  0.42635000  1.0
  C  C11  1  0.00000000  0.92635000  0.92635000  1.0
  C  C11  1  0.50000000  0.42635000  0.42635000  1.0
  C  C11  1  0.50000000  0.42635000  0.92635000  1.0
  C  C11  1  0.50000000  0.92635000  0.42635000  1.0
  C  C11  1  0.50000000  0.92635000  0.92635000  1.0
  C  C11  1  0.07365000  0.07365000  0.00000000  1.0
  C  C11  1  0.07365000  0.07365000  0.50000000  1.0
  C  C11  1  0.07365000  0.57365000  0.00000000  1.0
  C  C11  1  0.07365000  0.57365000  0.50000000  1.0
  C  C11  1  0.57365000  0.07365000  0.00000000  1.0
  C  C11  1  0.57365000  0.07365000  0.50000000  1.0
  C  C11  1  0.57365000  0.57365000  0.00000000  1.0
  C  C11  1  0.57365000  0.57365000  0.50000000  1.0
  C  C11  1  0.07365000  0.00000000  0.07365000  1.0
  C  C11  1  0.07365000  0.00000000  0.57365000  1.0
  C  C11  1  0.07365000  0.50000000  0.07365000  1.0
  C  C11  1  0.07365000  0.50000000  0.57365000  1.0
  C  C11  1  0.57365000  0.00000000  0.07365000  1.0
  C  C11  1  0.57365000  0.00000000  0.57365000  1.0
  C  C11  1  0.57365000  0.50000000  0.07365000  1.0
  C  C11  1  0.57365000  0.50000000  0.57365000  1.0
  C  C11  1  0.07365000  0.42635000  0.00000000  1.0
  C  C11  1  0.07365000  0.42635000  0.50000000  1.0
  C  C11  1  0.07365000  0.92635000  0.00000000  1.0
  C  C11  1  0.07365000  0.92635000  0.50000000  1.0
  C  C11  1  0.57365000  0.42635000  0.00000000  1.0
  C  C11  1  0.57365000  0.42635000  0.50000000  1.0
  C  C11  1  0.57365000  0.92635000  0.00000000  1.0
  C  C11  1  0.57365000  0.92635000  0.50000000  1.0
  C  C11  1  0.42635000  0.00000000  0.07365000  1.0
  C  C11  1  0.42635000  0.00000000  0.57365000  1.0
  C  C11  1  0.42635000  0.50000000  0.07365000  1.0
  C  C11  1  0.42635000  0.50000000  0.57365000  1.0
  C  C11  1  0.92635000  0.00000000  0.07365000  1.0
  C  C11  1  0.92635000  0.00000000  0.57365000  1.0
  C  C11  1  0.92635000  0.50000000  0.07365000  1.0
  C  C11  1  0.92635000  0.50000000  0.57365000  1.0
  C  C11  1  0.42635000  0.07365000  0.00000000  1.0
  C  C11  1  0.42635000  0.07365000  0.50000000  1.0
  C  C11  1  0.42635000  0.57365000  0.00000000  1.0
  C  C11  1  0.42635000  0.57365000  0.50000000  1.0
  C  C11  1  0.92635000  0.07365000  0.00000000  1.0
  C  C11  1  0.92635000  0.07365000  0.50000000  1.0
  C  C11  1  0.92635000  0.57365000  0.00000000  1.0
  C  C11  1  0.92635000  0.57365000  0.50000000  1.0
  C  C11  1  0.00000000  0.42635000  0.07365000  1.0
  C  C11  1  0.00000000  0.42635000  0.57365000  1.0
  C  C11  1  0.00000000  0.92635000  0.07365000  1.0
  C  C11  1  0.00000000  0.92635000  0.57365000  1.0
  C  C11  1  0.50000000  0.42635000  0.07365000  1.0
  C  C11  1  0.50000000  0.42635000  0.57365000  1.0
  C  C11  1  0.50000000  0.92635000  0.07365000  1.0
  C  C11  1  0.50000000  0.92635000  0.57365000  1.0
  C  C11  1  0.00000000  0.07365000  0.07365000  1.0
  C  C11  1  0.00000000  0.07365000  0.57365000  1.0
  C  C11  1  0.00000000  0.57365000  0.07365000  1.0
  C  C11  1  0.00000000  0.57365000  0.57365000  1.0
  C  C11  1  0.50000000  0.07365000  0.07365000  1.0
  C  C11  1  0.50000000  0.07365000  0.57365000  1.0
  C  C11  1  0.50000000  0.57365000  0.07365000  1.0
  C  C11  1  0.50000000  0.57365000  0.57365000  1.0
  C  C11  1  0.42635000  0.42635000  0.00000000  1.0
  C  C11  1  0.42635000  0.42635000  0.50000000  1.0
  C  C11  1  0.42635000  0.92635000  0.00000000  1.0
  C  C11  1  0.42635000  0.92635000  0.50000000  1.0
  C  C11  1  0.92635000  0.42635000  0.00000000  1.0
  C  C11  1  0.92635000  0.42635000  0.50000000  1.0
  C  C11  1  0.92635000  0.92635000  0.00000000  1.0
  C  C11  1  0.92635000  0.92635000  0.50000000  1.0
  C  C11  1  0.07365000  0.25000000  0.17635000  1.0
  C  C11  1  0.07365000  0.25000000  0.67635000  1.0
  C  C11  1  0.07365000  0.75000000  0.17635000  1.0
  C  C11  1  0.07365000  0.75000000  0.67635000  1.0
  C  C11  1  0.57365000  0.25000000  0.17635000  1.0
  C  C11  1  0.57365000  0.25000000  0.67635000  1.0
  C  C11  1  0.57365000  0.75000000  0.17635000  1.0
  C  C11  1  0.57365000  0.75000000  0.67635000  1.0
  C  C11  1  0.00000000  0.32365000  0.17635000  1.0
  C  C11  1  0.00000000  0.32365000  0.67635000  1.0
  C  C11  1  0.00000000  0.82365000  0.17635000  1.0
  C  C11  1  0.00000000  0.82365000  0.67635000  1.0
  C  C11  1  0.50000000  0.32365000  0.17635000  1.0
  C  C11  1  0.50000000  0.32365000  0.67635000  1.0
  C  C11  1  0.50000000  0.82365000  0.17635000  1.0
  C  C11  1  0.50000000  0.82365000  0.67635000  1.0
  C  C11  1  0.42635000  0.25000000  0.17635000  1.0
  C  C11  1  0.42635000  0.25000000  0.67635000  1.0
  C  C11  1  0.42635000  0.75000000  0.17635000  1.0
  C  C11  1  0.42635000  0.75000000  0.67635000  1.0
  C  C11  1  0.92635000  0.25000000  0.17635000  1.0
  C  C11  1  0.92635000  0.25000000  0.67635000  1.0
  C  C11  1  0.92635000  0.75000000  0.17635000  1.0
  C  C11  1  0.92635000  0.75000000  0.67635000  1.0
  C  C11  1  0.00000000  0.17635000  0.17635000  1.0
  C  C11  1  0.00000000  0.17635000  0.67635000  1.0
  C  C11  1  0.00000000  0.67635000  0.17635000  1.0
  C  C11  1  0.00000000  0.67635000  0.67635000  1.0
  C  C11  1  0.50000000  0.17635000  0.17635000  1.0
  C  C11  1  0.50000000  0.17635000  0.67635000  1.0
  C  C11  1  0.50000000  0.67635000  0.17635000  1.0
  C  C11  1  0.50000000  0.67635000  0.67635000  1.0
  C  C11  1  0.07365000  0.32365000  0.25000000  1.0
  C  C11  1  0.07365000  0.32365000  0.75000000  1.0
  C  C11  1  0.07365000  0.82365000  0.25000000  1.0
  C  C11  1  0.07365000  0.82365000  0.75000000  1.0
  C  C11  1  0.57365000  0.32365000  0.25000000  1.0
  C  C11  1  0.57365000  0.32365000  0.75000000  1.0
  C  C11  1  0.57365000  0.82365000  0.25000000  1.0
  C  C11  1  0.57365000  0.82365000  0.75000000  1.0
  C  C11  1  0.07365000  0.25000000  0.32365000  1.0
  C  C11  1  0.07365000  0.25000000  0.82365000  1.0
  C  C11  1  0.07365000  0.75000000  0.32365000  1.0
  C  C11  1  0.07365000  0.75000000  0.82365000  1.0
  C  C11  1  0.57365000  0.25000000  0.32365000  1.0
  C  C11  1  0.57365000  0.25000000  0.82365000  1.0
  C  C11  1  0.57365000  0.75000000  0.32365000  1.0
  C  C11  1  0.57365000  0.75000000  0.82365000  1.0
  C  C11  1  0.07365000  0.17635000  0.25000000  1.0
  C  C11  1  0.07365000  0.17635000  0.75000000  1.0
  C  C11  1  0.07365000  0.67635000  0.25000000  1.0
  C  C11  1  0.07365000  0.67635000  0.75000000  1.0
  C  C11  1  0.57365000  0.17635000  0.25000000  1.0
  C  C11  1  0.57365000  0.17635000  0.75000000  1.0
  C  C11  1  0.57365000  0.67635000  0.25000000  1.0
  C  C11  1  0.57365000  0.67635000  0.75000000  1.0
  C  C11  1  0.42635000  0.25000000  0.32365000  1.0
  C  C11  1  0.42635000  0.25000000  0.82365000  1.0
  C  C11  1  0.42635000  0.75000000  0.32365000  1.0
  C  C11  1  0.42635000  0.75000000  0.82365000  1.0
  C  C11  1  0.92635000  0.25000000  0.32365000  1.0
  C  C11  1  0.92635000  0.25000000  0.82365000  1.0
  C  C11  1  0.92635000  0.75000000  0.32365000  1.0
  C  C11  1  0.92635000  0.75000000  0.82365000  1.0
  C  C11  1  0.42635000  0.32365000  0.25000000  1.0
  C  C11  1  0.42635000  0.32365000  0.75000000  1.0
  C  C11  1  0.42635000  0.82365000  0.25000000  1.0
  C  C11  1  0.42635000  0.82365000  0.75000000  1.0
  C  C11  1  0.92635000  0.32365000  0.25000000  1.0
  C  C11  1  0.92635000  0.32365000  0.75000000  1.0
  C  C11  1  0.92635000  0.82365000  0.25000000  1.0
  C  C11  1  0.92635000  0.82365000  0.75000000  1.0
  C  C11  1  0.00000000  0.17635000  0.32365000  1.0
  C  C11  1  0.00000000  0.17635000  0.82365000  1.0
  C  C11  1  0.00000000  0.67635000  0.32365000  1.0
  C  C11  1  0.00000000  0.67635000  0.82365000  1.0
  C  C11  1  0.50000000  0.17635000  0.32365000  1.0
  C  C11  1  0.50000000  0.17635000  0.82365000  1.0
  C  C11  1  0.50000000  0.67635000  0.32365000  1.0
  C  C11  1  0.50000000  0.67635000  0.82365000  1.0
  C  C11  1  0.00000000  0.32365000  0.32365000  1.0
  C  C11  1  0.00000000  0.32365000  0.82365000  1.0
  C  C11  1  0.00000000  0.82365000  0.32365000  1.0
  C  C11  1  0.00000000  0.82365000  0.82365000  1.0
  C  C11  1  0.50000000  0.32365000  0.32365000  1.0
  C  C11  1  0.50000000  0.32365000  0.82365000  1.0
  C  C11  1  0.50000000  0.82365000  0.32365000  1.0
  C  C11  1  0.50000000  0.82365000  0.82365000  1.0
  C  C11  1  0.42635000  0.17635000  0.25000000  1.0
  C  C11  1  0.42635000  0.17635000  0.75000000  1.0
  C  C11  1  0.42635000  0.67635000  0.25000000  1.0
  C  C11  1  0.42635000  0.67635000  0.75000000  1.0
  C  C11  1  0.92635000  0.17635000  0.25000000  1.0
  C  C11  1  0.92635000  0.17635000  0.75000000  1.0
  C  C11  1  0.92635000  0.67635000  0.25000000  1.0
  C  C11  1  0.92635000  0.67635000  0.75000000  1.0
  C  C11  1  0.32365000  0.00000000  0.17635000  1.0
  C  C11  1  0.32365000  0.00000000  0.67635000  1.0
  C  C11  1  0.32365000  0.50000000  0.17635000  1.0
  C  C11  1  0.32365000  0.50000000  0.67635000  1.0
  C  C11  1  0.82365000  0.00000000  0.17635000  1.0
  C  C11  1  0.82365000  0.00000000  0.67635000  1.0
  C  C11  1  0.82365000  0.50000000  0.17635000  1.0
  C  C11  1  0.82365000  0.50000000  0.67635000  1.0
  C  C11  1  0.25000000  0.07365000  0.17635000  1.0
  C  C11  1  0.25000000  0.07365000  0.67635000  1.0
  C  C11  1  0.25000000  0.57365000  0.17635000  1.0
  C  C11  1  0.25000000  0.57365000  0.67635000  1.0
  C  C11  1  0.75000000  0.07365000  0.17635000  1.0
  C  C11  1  0.75000000  0.07365000  0.67635000  1.0
  C  C11  1  0.75000000  0.57365000  0.17635000  1.0
  C  C11  1  0.75000000  0.57365000  0.67635000  1.0
  C  C11  1  0.17635000  0.00000000  0.17635000  1.0
  C  C11  1  0.17635000  0.00000000  0.67635000  1.0
  C  C11  1  0.17635000  0.50000000  0.17635000  1.0
  C  C11  1  0.17635000  0.50000000  0.67635000  1.0
  C  C11  1  0.67635000  0.00000000  0.17635000  1.0
  C  C11  1  0.67635000  0.00000000  0.67635000  1.0
  C  C11  1  0.67635000  0.50000000  0.17635000  1.0
  C  C11  1  0.67635000  0.50000000  0.67635000  1.0
  C  C11  1  0.25000000  0.42635000  0.17635000  1.0
  C  C11  1  0.25000000  0.42635000  0.67635000  1.0
  C  C11  1  0.25000000  0.92635000  0.17635000  1.0
  C  C11  1  0.25000000  0.92635000  0.67635000  1.0
  C  C11  1  0.75000000  0.42635000  0.17635000  1.0
  C  C11  1  0.75000000  0.42635000  0.67635000  1.0
  C  C11  1  0.75000000  0.92635000  0.17635000  1.0
  C  C11  1  0.75000000  0.92635000  0.67635000  1.0
  C  C11  1  0.32365000  0.07365000  0.25000000  1.0
  C  C11  1  0.32365000  0.07365000  0.75000000  1.0
  C  C11  1  0.32365000  0.57365000  0.25000000  1.0
  C  C11  1  0.32365000  0.57365000  0.75000000  1.0
  C  C11  1  0.82365000  0.07365000  0.25000000  1.0
  C  C11  1  0.82365000  0.07365000  0.75000000  1.0
  C  C11  1  0.82365000  0.57365000  0.25000000  1.0
  C  C11  1  0.82365000  0.57365000  0.75000000  1.0
  C  C11  1  0.32365000  0.00000000  0.32365000  1.0
  C  C11  1  0.32365000  0.00000000  0.82365000  1.0
  C  C11  1  0.32365000  0.50000000  0.32365000  1.0
  C  C11  1  0.32365000  0.50000000  0.82365000  1.0
  C  C11  1  0.82365000  0.00000000  0.32365000  1.0
  C  C11  1  0.82365000  0.00000000  0.82365000  1.0
  C  C11  1  0.82365000  0.50000000  0.32365000  1.0
  C  C11  1  0.82365000  0.50000000  0.82365000  1.0
  C  C11  1  0.32365000  0.42635000  0.25000000  1.0
  C  C11  1  0.32365000  0.42635000  0.75000000  1.0
  C  C11  1  0.32365000  0.92635000  0.25000000  1.0
  C  C11  1  0.32365000  0.92635000  0.75000000  1.0
  C  C11  1  0.82365000  0.42635000  0.25000000  1.0
  C  C11  1  0.82365000  0.42635000  0.75000000  1.0
  C  C11  1  0.82365000  0.92635000  0.25000000  1.0
  C  C11  1  0.82365000  0.92635000  0.75000000  1.0
  C  C11  1  0.17635000  0.00000000  0.32365000  1.0
  C  C11  1  0.17635000  0.00000000  0.82365000  1.0
  C  C11  1  0.17635000  0.50000000  0.32365000  1.0
  C  C11  1  0.17635000  0.50000000  0.82365000  1.0
  C  C11  1  0.67635000  0.00000000  0.32365000  1.0
  C  C11  1  0.67635000  0.00000000  0.82365000  1.0
  C  C11  1  0.67635000  0.50000000  0.32365000  1.0
  C  C11  1  0.67635000  0.50000000  0.82365000  1.0
  C  C11  1  0.17635000  0.07365000  0.25000000  1.0
  C  C11  1  0.17635000  0.07365000  0.75000000  1.0
  C  C11  1  0.17635000  0.57365000  0.25000000  1.0
  C  C11  1  0.17635000  0.57365000  0.75000000  1.0
  C  C11  1  0.67635000  0.07365000  0.25000000  1.0
  C  C11  1  0.67635000  0.07365000  0.75000000  1.0
  C  C11  1  0.67635000  0.57365000  0.25000000  1.0
  C  C11  1  0.67635000  0.57365000  0.75000000  1.0
  C  C11  1  0.25000000  0.42635000  0.32365000  1.0
  C  C11  1  0.25000000  0.42635000  0.82365000  1.0
  C  C11  1  0.25000000  0.92635000  0.32365000  1.0
  C  C11  1  0.25000000  0.92635000  0.82365000  1.0
  C  C11  1  0.75000000  0.42635000  0.32365000  1.0
  C  C11  1  0.75000000  0.42635000  0.82365000  1.0
  C  C11  1  0.75000000  0.92635000  0.32365000  1.0
  C  C11  1  0.75000000  0.92635000  0.82365000  1.0
  C  C11  1  0.25000000  0.07365000  0.32365000  1.0
  C  C11  1  0.25000000  0.07365000  0.82365000  1.0
  C  C11  1  0.25000000  0.57365000  0.32365000  1.0
  C  C11  1  0.25000000  0.57365000  0.82365000  1.0
  C  C11  1  0.75000000  0.07365000  0.32365000  1.0
  C  C11  1  0.75000000  0.07365000  0.82365000  1.0
  C  C11  1  0.75000000  0.57365000  0.32365000  1.0
  C  C11  1  0.75000000  0.57365000  0.82365000  1.0
  C  C11  1  0.17635000  0.42635000  0.25000000  1.0
  C  C11  1  0.17635000  0.42635000  0.75000000  1.0
  C  C11  1  0.17635000  0.92635000  0.25000000  1.0
  C  C11  1  0.17635000  0.92635000  0.75000000  1.0
  C  C11  1  0.67635000  0.42635000  0.25000000  1.0
  C  C11  1  0.67635000  0.42635000  0.75000000  1.0
  C  C11  1  0.67635000  0.92635000  0.25000000  1.0
  C  C11  1  0.67635000  0.92635000  0.75000000  1.0
  C  C11  1  0.32365000  0.25000000  0.42635000  1.0
  C  C11  1  0.32365000  0.25000000  0.92635000  1.0
  C  C11  1  0.32365000  0.75000000  0.42635000  1.0
  C  C11  1  0.32365000  0.75000000  0.92635000  1.0
  C  C11  1  0.82365000  0.25000000  0.42635000  1.0
  C  C11  1  0.82365000  0.25000000  0.92635000  1.0
  C  C11  1  0.82365000  0.75000000  0.42635000  1.0
  C  C11  1  0.82365000  0.75000000  0.92635000  1.0
  C  C11  1  0.25000000  0.32365000  0.42635000  1.0
  C  C11  1  0.25000000  0.32365000  0.92635000  1.0
  C  C11  1  0.25000000  0.82365000  0.42635000  1.0
  C  C11  1  0.25000000  0.82365000  0.92635000  1.0
  C  C11  1  0.75000000  0.32365000  0.42635000  1.0
  C  C11  1  0.75000000  0.32365000  0.92635000  1.0
  C  C11  1  0.75000000  0.82365000  0.42635000  1.0
  C  C11  1  0.75000000  0.82365000  0.92635000  1.0
  C  C11  1  0.17635000  0.25000000  0.42635000  1.0
  C  C11  1  0.17635000  0.25000000  0.92635000  1.0
  C  C11  1  0.17635000  0.75000000  0.42635000  1.0
  C  C11  1  0.17635000  0.75000000  0.92635000  1.0
  C  C11  1  0.67635000  0.25000000  0.42635000  1.0
  C  C11  1  0.67635000  0.25000000  0.92635000  1.0
  C  C11  1  0.67635000  0.75000000  0.42635000  1.0
  C  C11  1  0.67635000  0.75000000  0.92635000  1.0
  C  C11  1  0.25000000  0.17635000  0.42635000  1.0
  C  C11  1  0.25000000  0.17635000  0.92635000  1.0
  C  C11  1  0.25000000  0.67635000  0.42635000  1.0
  C  C11  1  0.25000000  0.67635000  0.92635000  1.0
  C  C11  1  0.75000000  0.17635000  0.42635000  1.0
  C  C11  1  0.75000000  0.17635000  0.92635000  1.0
  C  C11  1  0.75000000  0.67635000  0.42635000  1.0
  C  C11  1  0.75000000  0.67635000  0.92635000  1.0
  C  C11  1  0.32365000  0.32365000  0.00000000  1.0
  C  C11  1  0.32365000  0.32365000  0.50000000  1.0
  C  C11  1  0.32365000  0.82365000  0.00000000  1.0
  C  C11  1  0.32365000  0.82365000  0.50000000  1.0
  C  C11  1  0.82365000  0.32365000  0.00000000  1.0
  C  C11  1  0.82365000  0.32365000  0.50000000  1.0
  C  C11  1  0.82365000  0.82365000  0.00000000  1.0
  C  C11  1  0.82365000  0.82365000  0.50000000  1.0
  C  C11  1  0.32365000  0.25000000  0.07365000  1.0
  C  C11  1  0.32365000  0.25000000  0.57365000  1.0
  C  C11  1  0.32365000  0.75000000  0.07365000  1.0
  C  C11  1  0.32365000  0.75000000  0.57365000  1.0
  C  C11  1  0.82365000  0.25000000  0.07365000  1.0
  C  C11  1  0.82365000  0.25000000  0.57365000  1.0
  C  C11  1  0.82365000  0.75000000  0.07365000  1.0
  C  C11  1  0.82365000  0.75000000  0.57365000  1.0
  C  C11  1  0.32365000  0.17635000  0.00000000  1.0
  C  C11  1  0.32365000  0.17635000  0.50000000  1.0
  C  C11  1  0.32365000  0.67635000  0.00000000  1.0
  C  C11  1  0.32365000  0.67635000  0.50000000  1.0
  C  C11  1  0.82365000  0.17635000  0.00000000  1.0
  C  C11  1  0.82365000  0.17635000  0.50000000  1.0
  C  C11  1  0.82365000  0.67635000  0.00000000  1.0
  C  C11  1  0.82365000  0.67635000  0.50000000  1.0
  C  C11  1  0.17635000  0.25000000  0.07365000  1.0
  C  C11  1  0.17635000  0.25000000  0.57365000  1.0
  C  C11  1  0.17635000  0.75000000  0.07365000  1.0
  C  C11  1  0.17635000  0.75000000  0.57365000  1.0
  C  C11  1  0.67635000  0.25000000  0.07365000  1.0
  C  C11  1  0.67635000  0.25000000  0.57365000  1.0
  C  C11  1  0.67635000  0.75000000  0.07365000  1.0
  C  C11  1  0.67635000  0.75000000  0.57365000  1.0
  C  C11  1  0.17635000  0.32365000  0.00000000  1.0
  C  C11  1  0.17635000  0.32365000  0.50000000  1.0
  C  C11  1  0.17635000  0.82365000  0.00000000  1.0
  C  C11  1  0.17635000  0.82365000  0.50000000  1.0
  C  C11  1  0.67635000  0.32365000  0.00000000  1.0
  C  C11  1  0.67635000  0.32365000  0.50000000  1.0
  C  C11  1  0.67635000  0.82365000  0.00000000  1.0
  C  C11  1  0.67635000  0.82365000  0.50000000  1.0
  C  C11  1  0.25000000  0.17635000  0.07365000  1.0
  C  C11  1  0.25000000  0.17635000  0.57365000  1.0
  C  C11  1  0.25000000  0.67635000  0.07365000  1.0
  C  C11  1  0.25000000  0.67635000  0.57365000  1.0
  C  C11  1  0.75000000  0.17635000  0.07365000  1.0
  C  C11  1  0.75000000  0.17635000  0.57365000  1.0
  C  C11  1  0.75000000  0.67635000  0.07365000  1.0
  C  C11  1  0.75000000  0.67635000  0.57365000  1.0
  C  C11  1  0.25000000  0.32365000  0.07365000  1.0
  C  C11  1  0.25000000  0.32365000  0.57365000  1.0
  C  C11  1  0.25000000  0.82365000  0.07365000  1.0
  C  C11  1  0.25000000  0.82365000  0.57365000  1.0
  C  C11  1  0.75000000  0.32365000  0.07365000  1.0
  C  C11  1  0.75000000  0.32365000  0.57365000  1.0
  C  C11  1  0.75000000  0.82365000  0.07365000  1.0
  C  C11  1  0.75000000  0.82365000  0.57365000  1.0
  C  C11  1  0.17635000  0.17635000  0.00000000  1.0
  C  C11  1  0.17635000  0.17635000  0.50000000  1.0
  C  C11  1  0.17635000  0.67635000  0.00000000  1.0
  C  C11  1  0.17635000  0.67635000  0.50000000  1.0
  C  C11  1  0.67635000  0.17635000  0.00000000  1.0
  C  C11  1  0.67635000  0.17635000  0.50000000  1.0
  C  C11  1  0.67635000  0.67635000  0.00000000  1.0
  C  C11  1  0.67635000  0.67635000  0.50000000  1.0
  C  C12  1  0.10095000  0.00000000  0.10095000  1.0
  C  C12  1  0.10095000  0.00000000  0.60095000  1.0
  C  C12  1  0.10095000  0.50000000  0.10095000  1.0
  C  C12  1  0.10095000  0.50000000  0.60095000  1.0
  C  C12  1  0.60095000  0.00000000  0.10095000  1.0
  C  C12  1  0.60095000  0.00000000  0.60095000  1.0
  C  C12  1  0.60095000  0.50000000  0.10095000  1.0
  C  C12  1  0.60095000  0.50000000  0.60095000  1.0
  C  C12  1  0.00000000  0.10095000  0.10095000  1.0
  C  C12  1  0.00000000  0.10095000  0.60095000  1.0
  C  C12  1  0.00000000  0.60095000  0.10095000  1.0
  C  C12  1  0.00000000  0.60095000  0.60095000  1.0
  C  C12  1  0.50000000  0.10095000  0.10095000  1.0
  C  C12  1  0.50000000  0.10095000  0.60095000  1.0
  C  C12  1  0.50000000  0.60095000  0.10095000  1.0
  C  C12  1  0.50000000  0.60095000  0.60095000  1.0
  C  C12  1  0.39905000  0.00000000  0.10095000  1.0
  C  C12  1  0.39905000  0.00000000  0.60095000  1.0
  C  C12  1  0.39905000  0.50000000  0.10095000  1.0
  C  C12  1  0.39905000  0.50000000  0.60095000  1.0
  C  C12  1  0.89905000  0.00000000  0.10095000  1.0
  C  C12  1  0.89905000  0.00000000  0.60095000  1.0
  C  C12  1  0.89905000  0.50000000  0.10095000  1.0
  C  C12  1  0.89905000  0.50000000  0.60095000  1.0
  C  C12  1  0.00000000  0.39905000  0.10095000  1.0
  C  C12  1  0.00000000  0.39905000  0.60095000  1.0
  C  C12  1  0.00000000  0.89905000  0.10095000  1.0
  C  C12  1  0.00000000  0.89905000  0.60095000  1.0
  C  C12  1  0.50000000  0.39905000  0.10095000  1.0
  C  C12  1  0.50000000  0.39905000  0.60095000  1.0
  C  C12  1  0.50000000  0.89905000  0.10095000  1.0
  C  C12  1  0.50000000  0.89905000  0.60095000  1.0
  C  C12  1  0.10095000  0.39905000  0.00000000  1.0
  C  C12  1  0.10095000  0.39905000  0.50000000  1.0
  C  C12  1  0.10095000  0.89905000  0.00000000  1.0
  C  C12  1  0.10095000  0.89905000  0.50000000  1.0
  C  C12  1  0.60095000  0.39905000  0.00000000  1.0
  C  C12  1  0.60095000  0.39905000  0.50000000  1.0
  C  C12  1  0.60095000  0.89905000  0.00000000  1.0
  C  C12  1  0.60095000  0.89905000  0.50000000  1.0
  C  C12  1  0.10095000  0.00000000  0.39905000  1.0
  C  C12  1  0.10095000  0.00000000  0.89905000  1.0
  C  C12  1  0.10095000  0.50000000  0.39905000  1.0
  C  C12  1  0.10095000  0.50000000  0.89905000  1.0
  C  C12  1  0.60095000  0.00000000  0.39905000  1.0
  C  C12  1  0.60095000  0.00000000  0.89905000  1.0
  C  C12  1  0.60095000  0.50000000  0.39905000  1.0
  C  C12  1  0.60095000  0.50000000  0.89905000  1.0
  C  C12  1  0.10095000  0.10095000  0.00000000  1.0
  C  C12  1  0.10095000  0.10095000  0.50000000  1.0
  C  C12  1  0.10095000  0.60095000  0.00000000  1.0
  C  C12  1  0.10095000  0.60095000  0.50000000  1.0
  C  C12  1  0.60095000  0.10095000  0.00000000  1.0
  C  C12  1  0.60095000  0.10095000  0.50000000  1.0
  C  C12  1  0.60095000  0.60095000  0.00000000  1.0
  C  C12  1  0.60095000  0.60095000  0.50000000  1.0
  C  C12  1  0.39905000  0.00000000  0.39905000  1.0
  C  C12  1  0.39905000  0.00000000  0.89905000  1.0
  C  C12  1  0.39905000  0.50000000  0.39905000  1.0
  C  C12  1  0.39905000  0.50000000  0.89905000  1.0
  C  C12  1  0.89905000  0.00000000  0.39905000  1.0
  C  C12  1  0.89905000  0.00000000  0.89905000  1.0
  C  C12  1  0.89905000  0.50000000  0.39905000  1.0
  C  C12  1  0.89905000  0.50000000  0.89905000  1.0
  C  C12  1  0.00000000  0.10095000  0.39905000  1.0
  C  C12  1  0.00000000  0.10095000  0.89905000  1.0
  C  C12  1  0.00000000  0.60095000  0.39905000  1.0
  C  C12  1  0.00000000  0.60095000  0.89905000  1.0
  C  C12  1  0.50000000  0.10095000  0.39905000  1.0
  C  C12  1  0.50000000  0.10095000  0.89905000  1.0
  C  C12  1  0.50000000  0.60095000  0.39905000  1.0
  C  C12  1  0.50000000  0.60095000  0.89905000  1.0
  C  C12  1  0.39905000  0.39905000  0.00000000  1.0
  C  C12  1  0.39905000  0.39905000  0.50000000  1.0
  C  C12  1  0.39905000  0.89905000  0.00000000  1.0
  C  C12  1  0.39905000  0.89905000  0.50000000  1.0
  C  C12  1  0.89905000  0.39905000  0.00000000  1.0
  C  C12  1  0.89905000  0.39905000  0.50000000  1.0
  C  C12  1  0.89905000  0.89905000  0.00000000  1.0
  C  C12  1  0.89905000  0.89905000  0.50000000  1.0
  C  C12  1  0.39905000  0.10095000  0.00000000  1.0
  C  C12  1  0.39905000  0.10095000  0.50000000  1.0
  C  C12  1  0.39905000  0.60095000  0.00000000  1.0
  C  C12  1  0.39905000  0.60095000  0.50000000  1.0
  C  C12  1  0.89905000  0.10095000  0.00000000  1.0
  C  C12  1  0.89905000  0.10095000  0.50000000  1.0
  C  C12  1  0.89905000  0.60095000  0.00000000  1.0
  C  C12  1  0.89905000  0.60095000  0.50000000  1.0
  C  C12  1  0.00000000  0.39905000  0.39905000  1.0
  C  C12  1  0.00000000  0.39905000  0.89905000  1.0
  C  C12  1  0.00000000  0.89905000  0.39905000  1.0
  C  C12  1  0.00000000  0.89905000  0.89905000  1.0
  C  C12  1  0.50000000  0.39905000  0.39905000  1.0
  C  C12  1  0.50000000  0.39905000  0.89905000  1.0
  C  C12  1  0.50000000  0.89905000  0.39905000  1.0
  C  C12  1  0.50000000  0.89905000  0.89905000  1.0
  C  C12  1  0.10095000  0.25000000  0.35095000  1.0
  C  C12  1  0.10095000  0.25000000  0.85095000  1.0
  C  C12  1  0.10095000  0.75000000  0.35095000  1.0
  C  C12  1  0.10095000  0.75000000  0.85095000  1.0
  C  C12  1  0.60095000  0.25000000  0.35095000  1.0
  C  C12  1  0.60095000  0.25000000  0.85095000  1.0
  C  C12  1  0.60095000  0.75000000  0.35095000  1.0
  C  C12  1  0.60095000  0.75000000  0.85095000  1.0
  C  C12  1  0.00000000  0.35095000  0.35095000  1.0
  C  C12  1  0.00000000  0.35095000  0.85095000  1.0
  C  C12  1  0.00000000  0.85095000  0.35095000  1.0
  C  C12  1  0.00000000  0.85095000  0.85095000  1.0
  C  C12  1  0.50000000  0.35095000  0.35095000  1.0
  C  C12  1  0.50000000  0.35095000  0.85095000  1.0
  C  C12  1  0.50000000  0.85095000  0.35095000  1.0
  C  C12  1  0.50000000  0.85095000  0.85095000  1.0
  C  C12  1  0.39905000  0.25000000  0.35095000  1.0
  C  C12  1  0.39905000  0.25000000  0.85095000  1.0
  C  C12  1  0.39905000  0.75000000  0.35095000  1.0
  C  C12  1  0.39905000  0.75000000  0.85095000  1.0
  C  C12  1  0.89905000  0.25000000  0.35095000  1.0
  C  C12  1  0.89905000  0.25000000  0.85095000  1.0
  C  C12  1  0.89905000  0.75000000  0.35095000  1.0
  C  C12  1  0.89905000  0.75000000  0.85095000  1.0
  C  C12  1  0.00000000  0.14905000  0.35095000  1.0
  C  C12  1  0.00000000  0.14905000  0.85095000  1.0
  C  C12  1  0.00000000  0.64905000  0.35095000  1.0
  C  C12  1  0.00000000  0.64905000  0.85095000  1.0
  C  C12  1  0.50000000  0.14905000  0.35095000  1.0
  C  C12  1  0.50000000  0.14905000  0.85095000  1.0
  C  C12  1  0.50000000  0.64905000  0.35095000  1.0
  C  C12  1  0.50000000  0.64905000  0.85095000  1.0
  C  C12  1  0.10095000  0.14905000  0.25000000  1.0
  C  C12  1  0.10095000  0.14905000  0.75000000  1.0
  C  C12  1  0.10095000  0.64905000  0.25000000  1.0
  C  C12  1  0.10095000  0.64905000  0.75000000  1.0
  C  C12  1  0.60095000  0.14905000  0.25000000  1.0
  C  C12  1  0.60095000  0.14905000  0.75000000  1.0
  C  C12  1  0.60095000  0.64905000  0.25000000  1.0
  C  C12  1  0.60095000  0.64905000  0.75000000  1.0
  C  C12  1  0.10095000  0.25000000  0.14905000  1.0
  C  C12  1  0.10095000  0.25000000  0.64905000  1.0
  C  C12  1  0.10095000  0.75000000  0.14905000  1.0
  C  C12  1  0.10095000  0.75000000  0.64905000  1.0
  C  C12  1  0.60095000  0.25000000  0.14905000  1.0
  C  C12  1  0.60095000  0.25000000  0.64905000  1.0
  C  C12  1  0.60095000  0.75000000  0.14905000  1.0
  C  C12  1  0.60095000  0.75000000  0.64905000  1.0
  C  C12  1  0.10095000  0.35095000  0.25000000  1.0
  C  C12  1  0.10095000  0.35095000  0.75000000  1.0
  C  C12  1  0.10095000  0.85095000  0.25000000  1.0
  C  C12  1  0.10095000  0.85095000  0.75000000  1.0
  C  C12  1  0.60095000  0.35095000  0.25000000  1.0
  C  C12  1  0.60095000  0.35095000  0.75000000  1.0
  C  C12  1  0.60095000  0.85095000  0.25000000  1.0
  C  C12  1  0.60095000  0.85095000  0.75000000  1.0
  C  C12  1  0.39905000  0.25000000  0.14905000  1.0
  C  C12  1  0.39905000  0.25000000  0.64905000  1.0
  C  C12  1  0.39905000  0.75000000  0.14905000  1.0
  C  C12  1  0.39905000  0.75000000  0.64905000  1.0
  C  C12  1  0.89905000  0.25000000  0.14905000  1.0
  C  C12  1  0.89905000  0.25000000  0.64905000  1.0
  C  C12  1  0.89905000  0.75000000  0.14905000  1.0
  C  C12  1  0.89905000  0.75000000  0.64905000  1.0
  C  C12  1  0.00000000  0.35095000  0.14905000  1.0
  C  C12  1  0.00000000  0.35095000  0.64905000  1.0
  C  C12  1  0.00000000  0.85095000  0.14905000  1.0
  C  C12  1  0.00000000  0.85095000  0.64905000  1.0
  C  C12  1  0.50000000  0.35095000  0.14905000  1.0
  C  C12  1  0.50000000  0.35095000  0.64905000  1.0
  C  C12  1  0.50000000  0.85095000  0.14905000  1.0
  C  C12  1  0.50000000  0.85095000  0.64905000  1.0
  C  C12  1  0.39905000  0.14905000  0.25000000  1.0
  C  C12  1  0.39905000  0.14905000  0.75000000  1.0
  C  C12  1  0.39905000  0.64905000  0.25000000  1.0
  C  C12  1  0.39905000  0.64905000  0.75000000  1.0
  C  C12  1  0.89905000  0.14905000  0.25000000  1.0
  C  C12  1  0.89905000  0.14905000  0.75000000  1.0
  C  C12  1  0.89905000  0.64905000  0.25000000  1.0
  C  C12  1  0.89905000  0.64905000  0.75000000  1.0
  C  C12  1  0.39905000  0.35095000  0.25000000  1.0
  C  C12  1  0.39905000  0.35095000  0.75000000  1.0
  C  C12  1  0.39905000  0.85095000  0.25000000  1.0
  C  C12  1  0.39905000  0.85095000  0.75000000  1.0
  C  C12  1  0.89905000  0.35095000  0.25000000  1.0
  C  C12  1  0.89905000  0.35095000  0.75000000  1.0
  C  C12  1  0.89905000  0.85095000  0.25000000  1.0
  C  C12  1  0.89905000  0.85095000  0.75000000  1.0
  C  C12  1  0.00000000  0.14905000  0.14905000  1.0
  C  C12  1  0.00000000  0.14905000  0.64905000  1.0
  C  C12  1  0.00000000  0.64905000  0.14905000  1.0
  C  C12  1  0.00000000  0.64905000  0.64905000  1.0
  C  C12  1  0.50000000  0.14905000  0.14905000  1.0
  C  C12  1  0.50000000  0.14905000  0.64905000  1.0
  C  C12  1  0.50000000  0.64905000  0.14905000  1.0
  C  C12  1  0.50000000  0.64905000  0.64905000  1.0
  C  C12  1  0.35095000  0.00000000  0.35095000  1.0
  C  C12  1  0.35095000  0.00000000  0.85095000  1.0
  C  C12  1  0.35095000  0.50000000  0.35095000  1.0
  C  C12  1  0.35095000  0.50000000  0.85095000  1.0
  C  C12  1  0.85095000  0.00000000  0.35095000  1.0
  C  C12  1  0.85095000  0.00000000  0.85095000  1.0
  C  C12  1  0.85095000  0.50000000  0.35095000  1.0
  C  C12  1  0.85095000  0.50000000  0.85095000  1.0
  C  C12  1  0.25000000  0.10095000  0.35095000  1.0
  C  C12  1  0.25000000  0.10095000  0.85095000  1.0
  C  C12  1  0.25000000  0.60095000  0.35095000  1.0
  C  C12  1  0.25000000  0.60095000  0.85095000  1.0
  C  C12  1  0.75000000  0.10095000  0.35095000  1.0
  C  C12  1  0.75000000  0.10095000  0.85095000  1.0
  C  C12  1  0.75000000  0.60095000  0.35095000  1.0
  C  C12  1  0.75000000  0.60095000  0.85095000  1.0
  C  C12  1  0.14905000  0.00000000  0.35095000  1.0
  C  C12  1  0.14905000  0.00000000  0.85095000  1.0
  C  C12  1  0.14905000  0.50000000  0.35095000  1.0
  C  C12  1  0.14905000  0.50000000  0.85095000  1.0
  C  C12  1  0.64905000  0.00000000  0.35095000  1.0
  C  C12  1  0.64905000  0.00000000  0.85095000  1.0
  C  C12  1  0.64905000  0.50000000  0.35095000  1.0
  C  C12  1  0.64905000  0.50000000  0.85095000  1.0
  C  C12  1  0.25000000  0.39905000  0.35095000  1.0
  C  C12  1  0.25000000  0.39905000  0.85095000  1.0
  C  C12  1  0.25000000  0.89905000  0.35095000  1.0
  C  C12  1  0.25000000  0.89905000  0.85095000  1.0
  C  C12  1  0.75000000  0.39905000  0.35095000  1.0
  C  C12  1  0.75000000  0.39905000  0.85095000  1.0
  C  C12  1  0.75000000  0.89905000  0.35095000  1.0
  C  C12  1  0.75000000  0.89905000  0.85095000  1.0
  C  C12  1  0.35095000  0.39905000  0.25000000  1.0
  C  C12  1  0.35095000  0.39905000  0.75000000  1.0
  C  C12  1  0.35095000  0.89905000  0.25000000  1.0
  C  C12  1  0.35095000  0.89905000  0.75000000  1.0
  C  C12  1  0.85095000  0.39905000  0.25000000  1.0
  C  C12  1  0.85095000  0.39905000  0.75000000  1.0
  C  C12  1  0.85095000  0.89905000  0.25000000  1.0
  C  C12  1  0.85095000  0.89905000  0.75000000  1.0
  C  C12  1  0.35095000  0.00000000  0.14905000  1.0
  C  C12  1  0.35095000  0.00000000  0.64905000  1.0
  C  C12  1  0.35095000  0.50000000  0.14905000  1.0
  C  C12  1  0.35095000  0.50000000  0.64905000  1.0
  C  C12  1  0.85095000  0.00000000  0.14905000  1.0
  C  C12  1  0.85095000  0.00000000  0.64905000  1.0
  C  C12  1  0.85095000  0.50000000  0.14905000  1.0
  C  C12  1  0.85095000  0.50000000  0.64905000  1.0
  C  C12  1  0.35095000  0.10095000  0.25000000  1.0
  C  C12  1  0.35095000  0.10095000  0.75000000  1.0
  C  C12  1  0.35095000  0.60095000  0.25000000  1.0
  C  C12  1  0.35095000  0.60095000  0.75000000  1.0
  C  C12  1  0.85095000  0.10095000  0.25000000  1.0
  C  C12  1  0.85095000  0.10095000  0.75000000  1.0
  C  C12  1  0.85095000  0.60095000  0.25000000  1.0
  C  C12  1  0.85095000  0.60095000  0.75000000  1.0
  C  C12  1  0.14905000  0.00000000  0.14905000  1.0
  C  C12  1  0.14905000  0.00000000  0.64905000  1.0
  C  C12  1  0.14905000  0.50000000  0.14905000  1.0
  C  C12  1  0.14905000  0.50000000  0.64905000  1.0
  C  C12  1  0.64905000  0.00000000  0.14905000  1.0
  C  C12  1  0.64905000  0.00000000  0.64905000  1.0
  C  C12  1  0.64905000  0.50000000  0.14905000  1.0
  C  C12  1  0.64905000  0.50000000  0.64905000  1.0
  C  C12  1  0.25000000  0.10095000  0.14905000  1.0
  C  C12  1  0.25000000  0.10095000  0.64905000  1.0
  C  C12  1  0.25000000  0.60095000  0.14905000  1.0
  C  C12  1  0.25000000  0.60095000  0.64905000  1.0
  C  C12  1  0.75000000  0.10095000  0.14905000  1.0
  C  C12  1  0.75000000  0.10095000  0.64905000  1.0
  C  C12  1  0.75000000  0.60095000  0.14905000  1.0
  C  C12  1  0.75000000  0.60095000  0.64905000  1.0
  C  C12  1  0.14905000  0.39905000  0.25000000  1.0
  C  C12  1  0.14905000  0.39905000  0.75000000  1.0
  C  C12  1  0.14905000  0.89905000  0.25000000  1.0
  C  C12  1  0.14905000  0.89905000  0.75000000  1.0
  C  C12  1  0.64905000  0.39905000  0.25000000  1.0
  C  C12  1  0.64905000  0.39905000  0.75000000  1.0
  C  C12  1  0.64905000  0.89905000  0.25000000  1.0
  C  C12  1  0.64905000  0.89905000  0.75000000  1.0
  C  C12  1  0.14905000  0.10095000  0.25000000  1.0
  C  C12  1  0.14905000  0.10095000  0.75000000  1.0
  C  C12  1  0.14905000  0.60095000  0.25000000  1.0
  C  C12  1  0.14905000  0.60095000  0.75000000  1.0
  C  C12  1  0.64905000  0.10095000  0.25000000  1.0
  C  C12  1  0.64905000  0.10095000  0.75000000  1.0
  C  C12  1  0.64905000  0.60095000  0.25000000  1.0
  C  C12  1  0.64905000  0.60095000  0.75000000  1.0
  C  C12  1  0.25000000  0.39905000  0.14905000  1.0
  C  C12  1  0.25000000  0.39905000  0.64905000  1.0
  C  C12  1  0.25000000  0.89905000  0.14905000  1.0
  C  C12  1  0.25000000  0.89905000  0.64905000  1.0
  C  C12  1  0.75000000  0.39905000  0.14905000  1.0
  C  C12  1  0.75000000  0.39905000  0.64905000  1.0
  C  C12  1  0.75000000  0.89905000  0.14905000  1.0
  C  C12  1  0.75000000  0.89905000  0.64905000  1.0
  C  C12  1  0.35095000  0.25000000  0.10095000  1.0
  C  C12  1  0.35095000  0.25000000  0.60095000  1.0
  C  C12  1  0.35095000  0.75000000  0.10095000  1.0
  C  C12  1  0.35095000  0.75000000  0.60095000  1.0
  C  C12  1  0.85095000  0.25000000  0.10095000  1.0
  C  C12  1  0.85095000  0.25000000  0.60095000  1.0
  C  C12  1  0.85095000  0.75000000  0.10095000  1.0
  C  C12  1  0.85095000  0.75000000  0.60095000  1.0
  C  C12  1  0.25000000  0.35095000  0.10095000  1.0
  C  C12  1  0.25000000  0.35095000  0.60095000  1.0
  C  C12  1  0.25000000  0.85095000  0.10095000  1.0
  C  C12  1  0.25000000  0.85095000  0.60095000  1.0
  C  C12  1  0.75000000  0.35095000  0.10095000  1.0
  C  C12  1  0.75000000  0.35095000  0.60095000  1.0
  C  C12  1  0.75000000  0.85095000  0.10095000  1.0
  C  C12  1  0.75000000  0.85095000  0.60095000  1.0
  C  C12  1  0.14905000  0.25000000  0.10095000  1.0
  C  C12  1  0.14905000  0.25000000  0.60095000  1.0
  C  C12  1  0.14905000  0.75000000  0.10095000  1.0
  C  C12  1  0.14905000  0.75000000  0.60095000  1.0
  C  C12  1  0.64905000  0.25000000  0.10095000  1.0
  C  C12  1  0.64905000  0.25000000  0.60095000  1.0
  C  C12  1  0.64905000  0.75000000  0.10095000  1.0
  C  C12  1  0.64905000  0.75000000  0.60095000  1.0
  C  C12  1  0.25000000  0.14905000  0.10095000  1.0
  C  C12  1  0.25000000  0.14905000  0.60095000  1.0
  C  C12  1  0.25000000  0.64905000  0.10095000  1.0
  C  C12  1  0.25000000  0.64905000  0.60095000  1.0
  C  C12  1  0.75000000  0.14905000  0.10095000  1.0
  C  C12  1  0.75000000  0.14905000  0.60095000  1.0
  C  C12  1  0.75000000  0.64905000  0.10095000  1.0
  C  C12  1  0.75000000  0.64905000  0.60095000  1.0
  C  C12  1  0.35095000  0.14905000  0.00000000  1.0
  C  C12  1  0.35095000  0.14905000  0.50000000  1.0
  C  C12  1  0.35095000  0.64905000  0.00000000  1.0
  C  C12  1  0.35095000  0.64905000  0.50000000  1.0
  C  C12  1  0.85095000  0.14905000  0.00000000  1.0
  C  C12  1  0.85095000  0.14905000  0.50000000  1.0
  C  C12  1  0.85095000  0.64905000  0.00000000  1.0
  C  C12  1  0.85095000  0.64905000  0.50000000  1.0
  C  C12  1  0.35095000  0.25000000  0.39905000  1.0
  C  C12  1  0.35095000  0.25000000  0.89905000  1.0
  C  C12  1  0.35095000  0.75000000  0.39905000  1.0
  C  C12  1  0.35095000  0.75000000  0.89905000  1.0
  C  C12  1  0.85095000  0.25000000  0.39905000  1.0
  C  C12  1  0.85095000  0.25000000  0.89905000  1.0
  C  C12  1  0.85095000  0.75000000  0.39905000  1.0
  C  C12  1  0.85095000  0.75000000  0.89905000  1.0
  C  C12  1  0.35095000  0.35095000  0.00000000  1.0
  C  C12  1  0.35095000  0.35095000  0.50000000  1.0
  C  C12  1  0.35095000  0.85095000  0.00000000  1.0
  C  C12  1  0.35095000  0.85095000  0.50000000  1.0
  C  C12  1  0.85095000  0.35095000  0.00000000  1.0
  C  C12  1  0.85095000  0.35095000  0.50000000  1.0
  C  C12  1  0.85095000  0.85095000  0.00000000  1.0
  C  C12  1  0.85095000  0.85095000  0.50000000  1.0
  C  C12  1  0.14905000  0.25000000  0.39905000  1.0
  C  C12  1  0.14905000  0.25000000  0.89905000  1.0
  C  C12  1  0.14905000  0.75000000  0.39905000  1.0
  C  C12  1  0.14905000  0.75000000  0.89905000  1.0
  C  C12  1  0.64905000  0.25000000  0.39905000  1.0
  C  C12  1  0.64905000  0.25000000  0.89905000  1.0
  C  C12  1  0.64905000  0.75000000  0.39905000  1.0
  C  C12  1  0.64905000  0.75000000  0.89905000  1.0
  C  C12  1  0.25000000  0.35095000  0.39905000  1.0
  C  C12  1  0.25000000  0.35095000  0.89905000  1.0
  C  C12  1  0.25000000  0.85095000  0.39905000  1.0
  C  C12  1  0.25000000  0.85095000  0.89905000  1.0
  C  C12  1  0.75000000  0.35095000  0.39905000  1.0
  C  C12  1  0.75000000  0.35095000  0.89905000  1.0
  C  C12  1  0.75000000  0.85095000  0.39905000  1.0
  C  C12  1  0.75000000  0.85095000  0.89905000  1.0
  C  C12  1  0.14905000  0.14905000  0.00000000  1.0
  C  C12  1  0.14905000  0.14905000  0.50000000  1.0
  C  C12  1  0.14905000  0.64905000  0.00000000  1.0
  C  C12  1  0.14905000  0.64905000  0.50000000  1.0
  C  C12  1  0.64905000  0.14905000  0.00000000  1.0
  C  C12  1  0.64905000  0.14905000  0.50000000  1.0
  C  C12  1  0.64905000  0.64905000  0.00000000  1.0
  C  C12  1  0.64905000  0.64905000  0.50000000  1.0
  C  C12  1  0.14905000  0.35095000  0.00000000  1.0
  C  C12  1  0.14905000  0.35095000  0.50000000  1.0
  C  C12  1  0.14905000  0.85095000  0.00000000  1.0
  C  C12  1  0.14905000  0.85095000  0.50000000  1.0
  C  C12  1  0.64905000  0.35095000  0.00000000  1.0
  C  C12  1  0.64905000  0.35095000  0.50000000  1.0
  C  C12  1  0.64905000  0.85095000  0.00000000  1.0
  C  C12  1  0.64905000  0.85095000  0.50000000  1.0
  C  C12  1  0.25000000  0.14905000  0.39905000  1.0
  C  C12  1  0.25000000  0.14905000  0.89905000  1.0
  C  C12  1  0.25000000  0.64905000  0.39905000  1.0
  C  C12  1  0.25000000  0.64905000  0.89905000  1.0
  C  C12  1  0.75000000  0.14905000  0.39905000  1.0
  C  C12  1  0.75000000  0.14905000  0.89905000  1.0
  C  C12  1  0.75000000  0.64905000  0.39905000  1.0
  C  C12  1  0.75000000  0.64905000  0.89905000  1.0
  C  C13  1  0.13215000  0.00000000  0.09205000  1.0
  C  C13  1  0.13215000  0.00000000  0.59205000  1.0
  C  C13  1  0.13215000  0.50000000  0.09205000  1.0
  C  C13  1  0.13215000  0.50000000  0.59205000  1.0
  C  C13  1  0.63215000  0.00000000  0.09205000  1.0
  C  C13  1  0.63215000  0.00000000  0.59205000  1.0
  C  C13  1  0.63215000  0.50000000  0.09205000  1.0
  C  C13  1  0.63215000  0.50000000  0.59205000  1.0
  C  C13  1  0.00000000  0.13215000  0.09205000  1.0
  C  C13  1  0.00000000  0.13215000  0.59205000  1.0
  C  C13  1  0.00000000  0.63215000  0.09205000  1.0
  C  C13  1  0.00000000  0.63215000  0.59205000  1.0
  C  C13  1  0.50000000  0.13215000  0.09205000  1.0
  C  C13  1  0.50000000  0.13215000  0.59205000  1.0
  C  C13  1  0.50000000  0.63215000  0.09205000  1.0
  C  C13  1  0.50000000  0.63215000  0.59205000  1.0
  C  C13  1  0.36785000  0.00000000  0.09205000  1.0
  C  C13  1  0.36785000  0.00000000  0.59205000  1.0
  C  C13  1  0.36785000  0.50000000  0.09205000  1.0
  C  C13  1  0.36785000  0.50000000  0.59205000  1.0
  C  C13  1  0.86785000  0.00000000  0.09205000  1.0
  C  C13  1  0.86785000  0.00000000  0.59205000  1.0
  C  C13  1  0.86785000  0.50000000  0.09205000  1.0
  C  C13  1  0.86785000  0.50000000  0.59205000  1.0
  C  C13  1  0.00000000  0.36785000  0.09205000  1.0
  C  C13  1  0.00000000  0.36785000  0.59205000  1.0
  C  C13  1  0.00000000  0.86785000  0.09205000  1.0
  C  C13  1  0.00000000  0.86785000  0.59205000  1.0
  C  C13  1  0.50000000  0.36785000  0.09205000  1.0
  C  C13  1  0.50000000  0.36785000  0.59205000  1.0
  C  C13  1  0.50000000  0.86785000  0.09205000  1.0
  C  C13  1  0.50000000  0.86785000  0.59205000  1.0
  C  C13  1  0.13215000  0.40795000  0.00000000  1.0
  C  C13  1  0.13215000  0.40795000  0.50000000  1.0
  C  C13  1  0.13215000  0.90795000  0.00000000  1.0
  C  C13  1  0.13215000  0.90795000  0.50000000  1.0
  C  C13  1  0.63215000  0.40795000  0.00000000  1.0
  C  C13  1  0.63215000  0.40795000  0.50000000  1.0
  C  C13  1  0.63215000  0.90795000  0.00000000  1.0
  C  C13  1  0.63215000  0.90795000  0.50000000  1.0
  C  C13  1  0.13215000  0.00000000  0.40795000  1.0
  C  C13  1  0.13215000  0.00000000  0.90795000  1.0
  C  C13  1  0.13215000  0.50000000  0.40795000  1.0
  C  C13  1  0.13215000  0.50000000  0.90795000  1.0
  C  C13  1  0.63215000  0.00000000  0.40795000  1.0
  C  C13  1  0.63215000  0.00000000  0.90795000  1.0
  C  C13  1  0.63215000  0.50000000  0.40795000  1.0
  C  C13  1  0.63215000  0.50000000  0.90795000  1.0
  C  C13  1  0.13215000  0.09205000  0.00000000  1.0
  C  C13  1  0.13215000  0.09205000  0.50000000  1.0
  C  C13  1  0.13215000  0.59205000  0.00000000  1.0
  C  C13  1  0.13215000  0.59205000  0.50000000  1.0
  C  C13  1  0.63215000  0.09205000  0.00000000  1.0
  C  C13  1  0.63215000  0.09205000  0.50000000  1.0
  C  C13  1  0.63215000  0.59205000  0.00000000  1.0
  C  C13  1  0.63215000  0.59205000  0.50000000  1.0
  C  C13  1  0.09205000  0.00000000  0.36785000  1.0
  C  C13  1  0.09205000  0.00000000  0.86785000  1.0
  C  C13  1  0.09205000  0.50000000  0.36785000  1.0
  C  C13  1  0.09205000  0.50000000  0.86785000  1.0
  C  C13  1  0.59205000  0.00000000  0.36785000  1.0
  C  C13  1  0.59205000  0.00000000  0.86785000  1.0
  C  C13  1  0.59205000  0.50000000  0.36785000  1.0
  C  C13  1  0.59205000  0.50000000  0.86785000  1.0
  C  C13  1  0.36785000  0.00000000  0.40795000  1.0
  C  C13  1  0.36785000  0.00000000  0.90795000  1.0
  C  C13  1  0.36785000  0.50000000  0.40795000  1.0
  C  C13  1  0.36785000  0.50000000  0.90795000  1.0
  C  C13  1  0.86785000  0.00000000  0.40795000  1.0
  C  C13  1  0.86785000  0.00000000  0.90795000  1.0
  C  C13  1  0.86785000  0.50000000  0.40795000  1.0
  C  C13  1  0.86785000  0.50000000  0.90795000  1.0
  C  C13  1  0.40795000  0.00000000  0.13215000  1.0
  C  C13  1  0.40795000  0.00000000  0.63215000  1.0
  C  C13  1  0.40795000  0.50000000  0.13215000  1.0
  C  C13  1  0.40795000  0.50000000  0.63215000  1.0
  C  C13  1  0.90795000  0.00000000  0.13215000  1.0
  C  C13  1  0.90795000  0.00000000  0.63215000  1.0
  C  C13  1  0.90795000  0.50000000  0.13215000  1.0
  C  C13  1  0.90795000  0.50000000  0.63215000  1.0
  C  C13  1  0.09205000  0.13215000  0.00000000  1.0
  C  C13  1  0.09205000  0.13215000  0.50000000  1.0
  C  C13  1  0.09205000  0.63215000  0.00000000  1.0
  C  C13  1  0.09205000  0.63215000  0.50000000  1.0
  C  C13  1  0.59205000  0.13215000  0.00000000  1.0
  C  C13  1  0.59205000  0.13215000  0.50000000  1.0
  C  C13  1  0.59205000  0.63215000  0.00000000  1.0
  C  C13  1  0.59205000  0.63215000  0.50000000  1.0
  C  C13  1  0.00000000  0.09205000  0.13215000  1.0
  C  C13  1  0.00000000  0.09205000  0.63215000  1.0
  C  C13  1  0.00000000  0.59205000  0.13215000  1.0
  C  C13  1  0.00000000  0.59205000  0.63215000  1.0
  C  C13  1  0.50000000  0.09205000  0.13215000  1.0
  C  C13  1  0.50000000  0.09205000  0.63215000  1.0
  C  C13  1  0.50000000  0.59205000  0.13215000  1.0
  C  C13  1  0.50000000  0.59205000  0.63215000  1.0
  C  C13  1  0.00000000  0.40795000  0.13215000  1.0
  C  C13  1  0.00000000  0.40795000  0.63215000  1.0
  C  C13  1  0.00000000  0.90795000  0.13215000  1.0
  C  C13  1  0.00000000  0.90795000  0.63215000  1.0
  C  C13  1  0.50000000  0.40795000  0.13215000  1.0
  C  C13  1  0.50000000  0.40795000  0.63215000  1.0
  C  C13  1  0.50000000  0.90795000  0.13215000  1.0
  C  C13  1  0.50000000  0.90795000  0.63215000  1.0
  C  C13  1  0.09205000  0.36785000  0.00000000  1.0
  C  C13  1  0.09205000  0.36785000  0.50000000  1.0
  C  C13  1  0.09205000  0.86785000  0.00000000  1.0
  C  C13  1  0.09205000  0.86785000  0.50000000  1.0
  C  C13  1  0.59205000  0.36785000  0.00000000  1.0
  C  C13  1  0.59205000  0.36785000  0.50000000  1.0
  C  C13  1  0.59205000  0.86785000  0.00000000  1.0
  C  C13  1  0.59205000  0.86785000  0.50000000  1.0
  C  C13  1  0.00000000  0.09205000  0.36785000  1.0
  C  C13  1  0.00000000  0.09205000  0.86785000  1.0
  C  C13  1  0.00000000  0.59205000  0.36785000  1.0
  C  C13  1  0.00000000  0.59205000  0.86785000  1.0
  C  C13  1  0.50000000  0.09205000  0.36785000  1.0
  C  C13  1  0.50000000  0.09205000  0.86785000  1.0
  C  C13  1  0.50000000  0.59205000  0.36785000  1.0
  C  C13  1  0.50000000  0.59205000  0.86785000  1.0
  C  C13  1  0.40795000  0.36785000  0.00000000  1.0
  C  C13  1  0.40795000  0.36785000  0.50000000  1.0
  C  C13  1  0.40795000  0.86785000  0.00000000  1.0
  C  C13  1  0.40795000  0.86785000  0.50000000  1.0
  C  C13  1  0.90795000  0.36785000  0.00000000  1.0
  C  C13  1  0.90795000  0.36785000  0.50000000  1.0
  C  C13  1  0.90795000  0.86785000  0.00000000  1.0
  C  C13  1  0.90795000  0.86785000  0.50000000  1.0
  C  C13  1  0.40795000  0.13215000  0.00000000  1.0
  C  C13  1  0.40795000  0.13215000  0.50000000  1.0
  C  C13  1  0.40795000  0.63215000  0.00000000  1.0
  C  C13  1  0.40795000  0.63215000  0.50000000  1.0
  C  C13  1  0.90795000  0.13215000  0.00000000  1.0
  C  C13  1  0.90795000  0.13215000  0.50000000  1.0
  C  C13  1  0.90795000  0.63215000  0.00000000  1.0
  C  C13  1  0.90795000  0.63215000  0.50000000  1.0
  C  C13  1  0.00000000  0.40795000  0.36785000  1.0
  C  C13  1  0.00000000  0.40795000  0.86785000  1.0
  C  C13  1  0.00000000  0.90795000  0.36785000  1.0
  C  C13  1  0.00000000  0.90795000  0.86785000  1.0
  C  C13  1  0.50000000  0.40795000  0.36785000  1.0
  C  C13  1  0.50000000  0.40795000  0.86785000  1.0
  C  C13  1  0.50000000  0.90795000  0.36785000  1.0
  C  C13  1  0.50000000  0.90795000  0.86785000  1.0
  C  C13  1  0.00000000  0.13215000  0.40795000  1.0
  C  C13  1  0.00000000  0.13215000  0.90795000  1.0
  C  C13  1  0.00000000  0.63215000  0.40795000  1.0
  C  C13  1  0.00000000  0.63215000  0.90795000  1.0
  C  C13  1  0.50000000  0.13215000  0.40795000  1.0
  C  C13  1  0.50000000  0.13215000  0.90795000  1.0
  C  C13  1  0.50000000  0.63215000  0.40795000  1.0
  C  C13  1  0.50000000  0.63215000  0.90795000  1.0
  C  C13  1  0.00000000  0.36785000  0.40795000  1.0
  C  C13  1  0.00000000  0.36785000  0.90795000  1.0
  C  C13  1  0.00000000  0.86785000  0.40795000  1.0
  C  C13  1  0.00000000  0.86785000  0.90795000  1.0
  C  C13  1  0.50000000  0.36785000  0.40795000  1.0
  C  C13  1  0.50000000  0.36785000  0.90795000  1.0
  C  C13  1  0.50000000  0.86785000  0.40795000  1.0
  C  C13  1  0.50000000  0.86785000  0.90795000  1.0
  C  C13  1  0.36785000  0.09205000  0.00000000  1.0
  C  C13  1  0.36785000  0.09205000  0.50000000  1.0
  C  C13  1  0.36785000  0.59205000  0.00000000  1.0
  C  C13  1  0.36785000  0.59205000  0.50000000  1.0
  C  C13  1  0.86785000  0.09205000  0.00000000  1.0
  C  C13  1  0.86785000  0.09205000  0.50000000  1.0
  C  C13  1  0.86785000  0.59205000  0.00000000  1.0
  C  C13  1  0.86785000  0.59205000  0.50000000  1.0
  C  C13  1  0.36785000  0.40795000  0.00000000  1.0
  C  C13  1  0.36785000  0.40795000  0.50000000  1.0
  C  C13  1  0.36785000  0.90795000  0.00000000  1.0
  C  C13  1  0.36785000  0.90795000  0.50000000  1.0
  C  C13  1  0.86785000  0.40795000  0.00000000  1.0
  C  C13  1  0.86785000  0.40795000  0.50000000  1.0
  C  C13  1  0.86785000  0.90795000  0.00000000  1.0
  C  C13  1  0.86785000  0.90795000  0.50000000  1.0
  C  C13  1  0.09205000  0.00000000  0.13215000  1.0
  C  C13  1  0.09205000  0.00000000  0.63215000  1.0
  C  C13  1  0.09205000  0.50000000  0.13215000  1.0
  C  C13  1  0.09205000  0.50000000  0.63215000  1.0
  C  C13  1  0.59205000  0.00000000  0.13215000  1.0
  C  C13  1  0.59205000  0.00000000  0.63215000  1.0
  C  C13  1  0.59205000  0.50000000  0.13215000  1.0
  C  C13  1  0.59205000  0.50000000  0.63215000  1.0
  C  C13  1  0.40795000  0.00000000  0.36785000  1.0
  C  C13  1  0.40795000  0.00000000  0.86785000  1.0
  C  C13  1  0.40795000  0.50000000  0.36785000  1.0
  C  C13  1  0.40795000  0.50000000  0.86785000  1.0
  C  C13  1  0.90795000  0.00000000  0.36785000  1.0
  C  C13  1  0.90795000  0.00000000  0.86785000  1.0
  C  C13  1  0.90795000  0.50000000  0.36785000  1.0
  C  C13  1  0.90795000  0.50000000  0.86785000  1.0
  C  C13  1  0.13215000  0.25000000  0.34205000  1.0
  C  C13  1  0.13215000  0.25000000  0.84205000  1.0
  C  C13  1  0.13215000  0.75000000  0.34205000  1.0
  C  C13  1  0.13215000  0.75000000  0.84205000  1.0
  C  C13  1  0.63215000  0.25000000  0.34205000  1.0
  C  C13  1  0.63215000  0.25000000  0.84205000  1.0
  C  C13  1  0.63215000  0.75000000  0.34205000  1.0
  C  C13  1  0.63215000  0.75000000  0.84205000  1.0
  C  C13  1  0.00000000  0.38215000  0.34205000  1.0
  C  C13  1  0.00000000  0.38215000  0.84205000  1.0
  C  C13  1  0.00000000  0.88215000  0.34205000  1.0
  C  C13  1  0.00000000  0.88215000  0.84205000  1.0
  C  C13  1  0.50000000  0.38215000  0.34205000  1.0
  C  C13  1  0.50000000  0.38215000  0.84205000  1.0
  C  C13  1  0.50000000  0.88215000  0.34205000  1.0
  C  C13  1  0.50000000  0.88215000  0.84205000  1.0
  C  C13  1  0.36785000  0.25000000  0.34205000  1.0
  C  C13  1  0.36785000  0.25000000  0.84205000  1.0
  C  C13  1  0.36785000  0.75000000  0.34205000  1.0
  C  C13  1  0.36785000  0.75000000  0.84205000  1.0
  C  C13  1  0.86785000  0.25000000  0.34205000  1.0
  C  C13  1  0.86785000  0.25000000  0.84205000  1.0
  C  C13  1  0.86785000  0.75000000  0.34205000  1.0
  C  C13  1  0.86785000  0.75000000  0.84205000  1.0
  C  C13  1  0.00000000  0.11785000  0.34205000  1.0
  C  C13  1  0.00000000  0.11785000  0.84205000  1.0
  C  C13  1  0.00000000  0.61785000  0.34205000  1.0
  C  C13  1  0.00000000  0.61785000  0.84205000  1.0
  C  C13  1  0.50000000  0.11785000  0.34205000  1.0
  C  C13  1  0.50000000  0.11785000  0.84205000  1.0
  C  C13  1  0.50000000  0.61785000  0.34205000  1.0
  C  C13  1  0.50000000  0.61785000  0.84205000  1.0
  C  C13  1  0.13215000  0.15795000  0.25000000  1.0
  C  C13  1  0.13215000  0.15795000  0.75000000  1.0
  C  C13  1  0.13215000  0.65795000  0.25000000  1.0
  C  C13  1  0.13215000  0.65795000  0.75000000  1.0
  C  C13  1  0.63215000  0.15795000  0.25000000  1.0
  C  C13  1  0.63215000  0.15795000  0.75000000  1.0
  C  C13  1  0.63215000  0.65795000  0.25000000  1.0
  C  C13  1  0.63215000  0.65795000  0.75000000  1.0
  C  C13  1  0.13215000  0.25000000  0.15795000  1.0
  C  C13  1  0.13215000  0.25000000  0.65795000  1.0
  C  C13  1  0.13215000  0.75000000  0.15795000  1.0
  C  C13  1  0.13215000  0.75000000  0.65795000  1.0
  C  C13  1  0.63215000  0.25000000  0.15795000  1.0
  C  C13  1  0.63215000  0.25000000  0.65795000  1.0
  C  C13  1  0.63215000  0.75000000  0.15795000  1.0
  C  C13  1  0.63215000  0.75000000  0.65795000  1.0
  C  C13  1  0.13215000  0.34205000  0.25000000  1.0
  C  C13  1  0.13215000  0.34205000  0.75000000  1.0
  C  C13  1  0.13215000  0.84205000  0.25000000  1.0
  C  C13  1  0.13215000  0.84205000  0.75000000  1.0
  C  C13  1  0.63215000  0.34205000  0.25000000  1.0
  C  C13  1  0.63215000  0.34205000  0.75000000  1.0
  C  C13  1  0.63215000  0.84205000  0.25000000  1.0
  C  C13  1  0.63215000  0.84205000  0.75000000  1.0
  C  C13  1  0.09205000  0.25000000  0.11785000  1.0
  C  C13  1  0.09205000  0.25000000  0.61785000  1.0
  C  C13  1  0.09205000  0.75000000  0.11785000  1.0
  C  C13  1  0.09205000  0.75000000  0.61785000  1.0
  C  C13  1  0.59205000  0.25000000  0.11785000  1.0
  C  C13  1  0.59205000  0.25000000  0.61785000  1.0
  C  C13  1  0.59205000  0.75000000  0.11785000  1.0
  C  C13  1  0.59205000  0.75000000  0.61785000  1.0
  C  C13  1  0.36785000  0.25000000  0.15795000  1.0
  C  C13  1  0.36785000  0.25000000  0.65795000  1.0
  C  C13  1  0.36785000  0.75000000  0.15795000  1.0
  C  C13  1  0.36785000  0.75000000  0.65795000  1.0
  C  C13  1  0.86785000  0.25000000  0.15795000  1.0
  C  C13  1  0.86785000  0.25000000  0.65795000  1.0
  C  C13  1  0.86785000  0.75000000  0.15795000  1.0
  C  C13  1  0.86785000  0.75000000  0.65795000  1.0
  C  C13  1  0.40795000  0.25000000  0.38215000  1.0
  C  C13  1  0.40795000  0.25000000  0.88215000  1.0
  C  C13  1  0.40795000  0.75000000  0.38215000  1.0
  C  C13  1  0.40795000  0.75000000  0.88215000  1.0
  C  C13  1  0.90795000  0.25000000  0.38215000  1.0
  C  C13  1  0.90795000  0.25000000  0.88215000  1.0
  C  C13  1  0.90795000  0.75000000  0.38215000  1.0
  C  C13  1  0.90795000  0.75000000  0.88215000  1.0
  C  C13  1  0.09205000  0.38215000  0.25000000  1.0
  C  C13  1  0.09205000  0.38215000  0.75000000  1.0
  C  C13  1  0.09205000  0.88215000  0.25000000  1.0
  C  C13  1  0.09205000  0.88215000  0.75000000  1.0
  C  C13  1  0.59205000  0.38215000  0.25000000  1.0
  C  C13  1  0.59205000  0.38215000  0.75000000  1.0
  C  C13  1  0.59205000  0.88215000  0.25000000  1.0
  C  C13  1  0.59205000  0.88215000  0.75000000  1.0
  C  C13  1  0.00000000  0.34205000  0.38215000  1.0
  C  C13  1  0.00000000  0.34205000  0.88215000  1.0
  C  C13  1  0.00000000  0.84205000  0.38215000  1.0
  C  C13  1  0.00000000  0.84205000  0.88215000  1.0
  C  C13  1  0.50000000  0.34205000  0.38215000  1.0
  C  C13  1  0.50000000  0.34205000  0.88215000  1.0
  C  C13  1  0.50000000  0.84205000  0.38215000  1.0
  C  C13  1  0.50000000  0.84205000  0.88215000  1.0
  C  C13  1  0.00000000  0.15795000  0.38215000  1.0
  C  C13  1  0.00000000  0.15795000  0.88215000  1.0
  C  C13  1  0.00000000  0.65795000  0.38215000  1.0
  C  C13  1  0.00000000  0.65795000  0.88215000  1.0
  C  C13  1  0.50000000  0.15795000  0.38215000  1.0
  C  C13  1  0.50000000  0.15795000  0.88215000  1.0
  C  C13  1  0.50000000  0.65795000  0.38215000  1.0
  C  C13  1  0.50000000  0.65795000  0.88215000  1.0
  C  C13  1  0.09205000  0.11785000  0.25000000  1.0
  C  C13  1  0.09205000  0.11785000  0.75000000  1.0
  C  C13  1  0.09205000  0.61785000  0.25000000  1.0
  C  C13  1  0.09205000  0.61785000  0.75000000  1.0
  C  C13  1  0.59205000  0.11785000  0.25000000  1.0
  C  C13  1  0.59205000  0.11785000  0.75000000  1.0
  C  C13  1  0.59205000  0.61785000  0.25000000  1.0
  C  C13  1  0.59205000  0.61785000  0.75000000  1.0
  C  C13  1  0.00000000  0.34205000  0.11785000  1.0
  C  C13  1  0.00000000  0.34205000  0.61785000  1.0
  C  C13  1  0.00000000  0.84205000  0.11785000  1.0
  C  C13  1  0.00000000  0.84205000  0.61785000  1.0
  C  C13  1  0.50000000  0.34205000  0.11785000  1.0
  C  C13  1  0.50000000  0.34205000  0.61785000  1.0
  C  C13  1  0.50000000  0.84205000  0.11785000  1.0
  C  C13  1  0.50000000  0.84205000  0.61785000  1.0
  C  C13  1  0.40795000  0.11785000  0.25000000  1.0
  C  C13  1  0.40795000  0.11785000  0.75000000  1.0
  C  C13  1  0.40795000  0.61785000  0.25000000  1.0
  C  C13  1  0.40795000  0.61785000  0.75000000  1.0
  C  C13  1  0.90795000  0.11785000  0.25000000  1.0
  C  C13  1  0.90795000  0.11785000  0.75000000  1.0
  C  C13  1  0.90795000  0.61785000  0.25000000  1.0
  C  C13  1  0.90795000  0.61785000  0.75000000  1.0
  C  C13  1  0.40795000  0.38215000  0.25000000  1.0
  C  C13  1  0.40795000  0.38215000  0.75000000  1.0
  C  C13  1  0.40795000  0.88215000  0.25000000  1.0
  C  C13  1  0.40795000  0.88215000  0.75000000  1.0
  C  C13  1  0.90795000  0.38215000  0.25000000  1.0
  C  C13  1  0.90795000  0.38215000  0.75000000  1.0
  C  C13  1  0.90795000  0.88215000  0.25000000  1.0
  C  C13  1  0.90795000  0.88215000  0.75000000  1.0
  C  C13  1  0.00000000  0.15795000  0.11785000  1.0
  C  C13  1  0.00000000  0.15795000  0.61785000  1.0
  C  C13  1  0.00000000  0.65795000  0.11785000  1.0
  C  C13  1  0.00000000  0.65795000  0.61785000  1.0
  C  C13  1  0.50000000  0.15795000  0.11785000  1.0
  C  C13  1  0.50000000  0.15795000  0.61785000  1.0
  C  C13  1  0.50000000  0.65795000  0.11785000  1.0
  C  C13  1  0.50000000  0.65795000  0.61785000  1.0
  C  C13  1  0.00000000  0.38215000  0.15795000  1.0
  C  C13  1  0.00000000  0.38215000  0.65795000  1.0
  C  C13  1  0.00000000  0.88215000  0.15795000  1.0
  C  C13  1  0.00000000  0.88215000  0.65795000  1.0
  C  C13  1  0.50000000  0.38215000  0.15795000  1.0
  C  C13  1  0.50000000  0.38215000  0.65795000  1.0
  C  C13  1  0.50000000  0.88215000  0.15795000  1.0
  C  C13  1  0.50000000  0.88215000  0.65795000  1.0
  C  C13  1  0.00000000  0.11785000  0.15795000  1.0
  C  C13  1  0.00000000  0.11785000  0.65795000  1.0
  C  C13  1  0.00000000  0.61785000  0.15795000  1.0
  C  C13  1  0.00000000  0.61785000  0.65795000  1.0
  C  C13  1  0.50000000  0.11785000  0.15795000  1.0
  C  C13  1  0.50000000  0.11785000  0.65795000  1.0
  C  C13  1  0.50000000  0.61785000  0.15795000  1.0
  C  C13  1  0.50000000  0.61785000  0.65795000  1.0
  C  C13  1  0.36785000  0.34205000  0.25000000  1.0
  C  C13  1  0.36785000  0.34205000  0.75000000  1.0
  C  C13  1  0.36785000  0.84205000  0.25000000  1.0
  C  C13  1  0.36785000  0.84205000  0.75000000  1.0
  C  C13  1  0.86785000  0.34205000  0.25000000  1.0
  C  C13  1  0.86785000  0.34205000  0.75000000  1.0
  C  C13  1  0.86785000  0.84205000  0.25000000  1.0
  C  C13  1  0.86785000  0.84205000  0.75000000  1.0
  C  C13  1  0.36785000  0.15795000  0.25000000  1.0
  C  C13  1  0.36785000  0.15795000  0.75000000  1.0
  C  C13  1  0.36785000  0.65795000  0.25000000  1.0
  C  C13  1  0.36785000  0.65795000  0.75000000  1.0
  C  C13  1  0.86785000  0.15795000  0.25000000  1.0
  C  C13  1  0.86785000  0.15795000  0.75000000  1.0
  C  C13  1  0.86785000  0.65795000  0.25000000  1.0
  C  C13  1  0.86785000  0.65795000  0.75000000  1.0
  C  C13  1  0.09205000  0.25000000  0.38215000  1.0
  C  C13  1  0.09205000  0.25000000  0.88215000  1.0
  C  C13  1  0.09205000  0.75000000  0.38215000  1.0
  C  C13  1  0.09205000  0.75000000  0.88215000  1.0
  C  C13  1  0.59205000  0.25000000  0.38215000  1.0
  C  C13  1  0.59205000  0.25000000  0.88215000  1.0
  C  C13  1  0.59205000  0.75000000  0.38215000  1.0
  C  C13  1  0.59205000  0.75000000  0.88215000  1.0
  C  C13  1  0.40795000  0.25000000  0.11785000  1.0
  C  C13  1  0.40795000  0.25000000  0.61785000  1.0
  C  C13  1  0.40795000  0.75000000  0.11785000  1.0
  C  C13  1  0.40795000  0.75000000  0.61785000  1.0
  C  C13  1  0.90795000  0.25000000  0.11785000  1.0
  C  C13  1  0.90795000  0.25000000  0.61785000  1.0
  C  C13  1  0.90795000  0.75000000  0.11785000  1.0
  C  C13  1  0.90795000  0.75000000  0.61785000  1.0
  C  C13  1  0.38215000  0.00000000  0.34205000  1.0
  C  C13  1  0.38215000  0.00000000  0.84205000  1.0
  C  C13  1  0.38215000  0.50000000  0.34205000  1.0
  C  C13  1  0.38215000  0.50000000  0.84205000  1.0
  C  C13  1  0.88215000  0.00000000  0.34205000  1.0
  C  C13  1  0.88215000  0.00000000  0.84205000  1.0
  C  C13  1  0.88215000  0.50000000  0.34205000  1.0
  C  C13  1  0.88215000  0.50000000  0.84205000  1.0
  C  C13  1  0.25000000  0.13215000  0.34205000  1.0
  C  C13  1  0.25000000  0.13215000  0.84205000  1.0
  C  C13  1  0.25000000  0.63215000  0.34205000  1.0
  C  C13  1  0.25000000  0.63215000  0.84205000  1.0
  C  C13  1  0.75000000  0.13215000  0.34205000  1.0
  C  C13  1  0.75000000  0.13215000  0.84205000  1.0
  C  C13  1  0.75000000  0.63215000  0.34205000  1.0
  C  C13  1  0.75000000  0.63215000  0.84205000  1.0
  C  C13  1  0.11785000  0.00000000  0.34205000  1.0
  C  C13  1  0.11785000  0.00000000  0.84205000  1.0
  C  C13  1  0.11785000  0.50000000  0.34205000  1.0
  C  C13  1  0.11785000  0.50000000  0.84205000  1.0
  C  C13  1  0.61785000  0.00000000  0.34205000  1.0
  C  C13  1  0.61785000  0.00000000  0.84205000  1.0
  C  C13  1  0.61785000  0.50000000  0.34205000  1.0
  C  C13  1  0.61785000  0.50000000  0.84205000  1.0
  C  C13  1  0.25000000  0.36785000  0.34205000  1.0
  C  C13  1  0.25000000  0.36785000  0.84205000  1.0
  C  C13  1  0.25000000  0.86785000  0.34205000  1.0
  C  C13  1  0.25000000  0.86785000  0.84205000  1.0
  C  C13  1  0.75000000  0.36785000  0.34205000  1.0
  C  C13  1  0.75000000  0.36785000  0.84205000  1.0
  C  C13  1  0.75000000  0.86785000  0.34205000  1.0
  C  C13  1  0.75000000  0.86785000  0.84205000  1.0
  C  C13  1  0.38215000  0.40795000  0.25000000  1.0
  C  C13  1  0.38215000  0.40795000  0.75000000  1.0
  C  C13  1  0.38215000  0.90795000  0.25000000  1.0
  C  C13  1  0.38215000  0.90795000  0.75000000  1.0
  C  C13  1  0.88215000  0.40795000  0.25000000  1.0
  C  C13  1  0.88215000  0.40795000  0.75000000  1.0
  C  C13  1  0.88215000  0.90795000  0.25000000  1.0
  C  C13  1  0.88215000  0.90795000  0.75000000  1.0
  C  C13  1  0.38215000  0.00000000  0.15795000  1.0
  C  C13  1  0.38215000  0.00000000  0.65795000  1.0
  C  C13  1  0.38215000  0.50000000  0.15795000  1.0
  C  C13  1  0.38215000  0.50000000  0.65795000  1.0
  C  C13  1  0.88215000  0.00000000  0.15795000  1.0
  C  C13  1  0.88215000  0.00000000  0.65795000  1.0
  C  C13  1  0.88215000  0.50000000  0.15795000  1.0
  C  C13  1  0.88215000  0.50000000  0.65795000  1.0
  C  C13  1  0.38215000  0.09205000  0.25000000  1.0
  C  C13  1  0.38215000  0.09205000  0.75000000  1.0
  C  C13  1  0.38215000  0.59205000  0.25000000  1.0
  C  C13  1  0.38215000  0.59205000  0.75000000  1.0
  C  C13  1  0.88215000  0.09205000  0.25000000  1.0
  C  C13  1  0.88215000  0.09205000  0.75000000  1.0
  C  C13  1  0.88215000  0.59205000  0.25000000  1.0
  C  C13  1  0.88215000  0.59205000  0.75000000  1.0
  C  C13  1  0.34205000  0.00000000  0.11785000  1.0
  C  C13  1  0.34205000  0.00000000  0.61785000  1.0
  C  C13  1  0.34205000  0.50000000  0.11785000  1.0
  C  C13  1  0.34205000  0.50000000  0.61785000  1.0
  C  C13  1  0.84205000  0.00000000  0.11785000  1.0
  C  C13  1  0.84205000  0.00000000  0.61785000  1.0
  C  C13  1  0.84205000  0.50000000  0.11785000  1.0
  C  C13  1  0.84205000  0.50000000  0.61785000  1.0
  C  C13  1  0.11785000  0.00000000  0.15795000  1.0
  C  C13  1  0.11785000  0.00000000  0.65795000  1.0
  C  C13  1  0.11785000  0.50000000  0.15795000  1.0
  C  C13  1  0.11785000  0.50000000  0.65795000  1.0
  C  C13  1  0.61785000  0.00000000  0.15795000  1.0
  C  C13  1  0.61785000  0.00000000  0.65795000  1.0
  C  C13  1  0.61785000  0.50000000  0.15795000  1.0
  C  C13  1  0.61785000  0.50000000  0.65795000  1.0
  C  C13  1  0.15795000  0.00000000  0.38215000  1.0
  C  C13  1  0.15795000  0.00000000  0.88215000  1.0
  C  C13  1  0.15795000  0.50000000  0.38215000  1.0
  C  C13  1  0.15795000  0.50000000  0.88215000  1.0
  C  C13  1  0.65795000  0.00000000  0.38215000  1.0
  C  C13  1  0.65795000  0.00000000  0.88215000  1.0
  C  C13  1  0.65795000  0.50000000  0.38215000  1.0
  C  C13  1  0.65795000  0.50000000  0.88215000  1.0
  C  C13  1  0.34205000  0.13215000  0.25000000  1.0
  C  C13  1  0.34205000  0.13215000  0.75000000  1.0
  C  C13  1  0.34205000  0.63215000  0.25000000  1.0
  C  C13  1  0.34205000  0.63215000  0.75000000  1.0
  C  C13  1  0.84205000  0.13215000  0.25000000  1.0
  C  C13  1  0.84205000  0.13215000  0.75000000  1.0
  C  C13  1  0.84205000  0.63215000  0.25000000  1.0
  C  C13  1  0.84205000  0.63215000  0.75000000  1.0
  C  C13  1  0.25000000  0.09205000  0.38215000  1.0
  C  C13  1  0.25000000  0.09205000  0.88215000  1.0
  C  C13  1  0.25000000  0.59205000  0.38215000  1.0
  C  C13  1  0.25000000  0.59205000  0.88215000  1.0
  C  C13  1  0.75000000  0.09205000  0.38215000  1.0
  C  C13  1  0.75000000  0.09205000  0.88215000  1.0
  C  C13  1  0.75000000  0.59205000  0.38215000  1.0
  C  C13  1  0.75000000  0.59205000  0.88215000  1.0
  C  C13  1  0.25000000  0.40795000  0.38215000  1.0
  C  C13  1  0.25000000  0.40795000  0.88215000  1.0
  C  C13  1  0.25000000  0.90795000  0.38215000  1.0
  C  C13  1  0.25000000  0.90795000  0.88215000  1.0
  C  C13  1  0.75000000  0.40795000  0.38215000  1.0
  C  C13  1  0.75000000  0.40795000  0.88215000  1.0
  C  C13  1  0.75000000  0.90795000  0.38215000  1.0
  C  C13  1  0.75000000  0.90795000  0.88215000  1.0
  C  C13  1  0.34205000  0.36785000  0.25000000  1.0
  C  C13  1  0.34205000  0.36785000  0.75000000  1.0
  C  C13  1  0.34205000  0.86785000  0.25000000  1.0
  C  C13  1  0.34205000  0.86785000  0.75000000  1.0
  C  C13  1  0.84205000  0.36785000  0.25000000  1.0
  C  C13  1  0.84205000  0.36785000  0.75000000  1.0
  C  C13  1  0.84205000  0.86785000  0.25000000  1.0
  C  C13  1  0.84205000  0.86785000  0.75000000  1.0
  C  C13  1  0.25000000  0.09205000  0.11785000  1.0
  C  C13  1  0.25000000  0.09205000  0.61785000  1.0
  C  C13  1  0.25000000  0.59205000  0.11785000  1.0
  C  C13  1  0.25000000  0.59205000  0.61785000  1.0
  C  C13  1  0.75000000  0.09205000  0.11785000  1.0
  C  C13  1  0.75000000  0.09205000  0.61785000  1.0
  C  C13  1  0.75000000  0.59205000  0.11785000  1.0
  C  C13  1  0.75000000  0.59205000  0.61785000  1.0
  C  C13  1  0.15795000  0.36785000  0.25000000  1.0
  C  C13  1  0.15795000  0.36785000  0.75000000  1.0
  C  C13  1  0.15795000  0.86785000  0.25000000  1.0
  C  C13  1  0.15795000  0.86785000  0.75000000  1.0
  C  C13  1  0.65795000  0.36785000  0.25000000  1.0
  C  C13  1  0.65795000  0.36785000  0.75000000  1.0
  C  C13  1  0.65795000  0.86785000  0.25000000  1.0
  C  C13  1  0.65795000  0.86785000  0.75000000  1.0
  C  C13  1  0.15795000  0.13215000  0.25000000  1.0
  C  C13  1  0.15795000  0.13215000  0.75000000  1.0
  C  C13  1  0.15795000  0.63215000  0.25000000  1.0
  C  C13  1  0.15795000  0.63215000  0.75000000  1.0
  C  C13  1  0.65795000  0.13215000  0.25000000  1.0
  C  C13  1  0.65795000  0.13215000  0.75000000  1.0
  C  C13  1  0.65795000  0.63215000  0.25000000  1.0
  C  C13  1  0.65795000  0.63215000  0.75000000  1.0
  C  C13  1  0.25000000  0.40795000  0.11785000  1.0
  C  C13  1  0.25000000  0.40795000  0.61785000  1.0
  C  C13  1  0.25000000  0.90795000  0.11785000  1.0
  C  C13  1  0.25000000  0.90795000  0.61785000  1.0
  C  C13  1  0.75000000  0.40795000  0.11785000  1.0
  C  C13  1  0.75000000  0.40795000  0.61785000  1.0
  C  C13  1  0.75000000  0.90795000  0.11785000  1.0
  C  C13  1  0.75000000  0.90795000  0.61785000  1.0
  C  C13  1  0.25000000  0.13215000  0.15795000  1.0
  C  C13  1  0.25000000  0.13215000  0.65795000  1.0
  C  C13  1  0.25000000  0.63215000  0.15795000  1.0
  C  C13  1  0.25000000  0.63215000  0.65795000  1.0
  C  C13  1  0.75000000  0.13215000  0.15795000  1.0
  C  C13  1  0.75000000  0.13215000  0.65795000  1.0
  C  C13  1  0.75000000  0.63215000  0.15795000  1.0
  C  C13  1  0.75000000  0.63215000  0.65795000  1.0
  C  C13  1  0.25000000  0.36785000  0.15795000  1.0
  C  C13  1  0.25000000  0.36785000  0.65795000  1.0
  C  C13  1  0.25000000  0.86785000  0.15795000  1.0
  C  C13  1  0.25000000  0.86785000  0.65795000  1.0
  C  C13  1  0.75000000  0.36785000  0.15795000  1.0
  C  C13  1  0.75000000  0.36785000  0.65795000  1.0
  C  C13  1  0.75000000  0.86785000  0.15795000  1.0
  C  C13  1  0.75000000  0.86785000  0.65795000  1.0
  C  C13  1  0.11785000  0.09205000  0.25000000  1.0
  C  C13  1  0.11785000  0.09205000  0.75000000  1.0
  C  C13  1  0.11785000  0.59205000  0.25000000  1.0
  C  C13  1  0.11785000  0.59205000  0.75000000  1.0
  C  C13  1  0.61785000  0.09205000  0.25000000  1.0
  C  C13  1  0.61785000  0.09205000  0.75000000  1.0
  C  C13  1  0.61785000  0.59205000  0.25000000  1.0
  C  C13  1  0.61785000  0.59205000  0.75000000  1.0
  C  C13  1  0.11785000  0.40795000  0.25000000  1.0
  C  C13  1  0.11785000  0.40795000  0.75000000  1.0
  C  C13  1  0.11785000  0.90795000  0.25000000  1.0
  C  C13  1  0.11785000  0.90795000  0.75000000  1.0
  C  C13  1  0.61785000  0.40795000  0.25000000  1.0
  C  C13  1  0.61785000  0.40795000  0.75000000  1.0
  C  C13  1  0.61785000  0.90795000  0.25000000  1.0
  C  C13  1  0.61785000  0.90795000  0.75000000  1.0
  C  C13  1  0.34205000  0.00000000  0.38215000  1.0
  C  C13  1  0.34205000  0.00000000  0.88215000  1.0
  C  C13  1  0.34205000  0.50000000  0.38215000  1.0
  C  C13  1  0.34205000  0.50000000  0.88215000  1.0
  C  C13  1  0.84205000  0.00000000  0.38215000  1.0
  C  C13  1  0.84205000  0.00000000  0.88215000  1.0
  C  C13  1  0.84205000  0.50000000  0.38215000  1.0
  C  C13  1  0.84205000  0.50000000  0.88215000  1.0
  C  C13  1  0.15795000  0.00000000  0.11785000  1.0
  C  C13  1  0.15795000  0.00000000  0.61785000  1.0
  C  C13  1  0.15795000  0.50000000  0.11785000  1.0
  C  C13  1  0.15795000  0.50000000  0.61785000  1.0
  C  C13  1  0.65795000  0.00000000  0.11785000  1.0
  C  C13  1  0.65795000  0.00000000  0.61785000  1.0
  C  C13  1  0.65795000  0.50000000  0.11785000  1.0
  C  C13  1  0.65795000  0.50000000  0.61785000  1.0
  C  C13  1  0.38215000  0.25000000  0.09205000  1.0
  C  C13  1  0.38215000  0.25000000  0.59205000  1.0
  C  C13  1  0.38215000  0.75000000  0.09205000  1.0
  C  C13  1  0.38215000  0.75000000  0.59205000  1.0
  C  C13  1  0.88215000  0.25000000  0.09205000  1.0
  C  C13  1  0.88215000  0.25000000  0.59205000  1.0
  C  C13  1  0.88215000  0.75000000  0.09205000  1.0
  C  C13  1  0.88215000  0.75000000  0.59205000  1.0
  C  C13  1  0.25000000  0.38215000  0.09205000  1.0
  C  C13  1  0.25000000  0.38215000  0.59205000  1.0
  C  C13  1  0.25000000  0.88215000  0.09205000  1.0
  C  C13  1  0.25000000  0.88215000  0.59205000  1.0
  C  C13  1  0.75000000  0.38215000  0.09205000  1.0
  C  C13  1  0.75000000  0.38215000  0.59205000  1.0
  C  C13  1  0.75000000  0.88215000  0.09205000  1.0
  C  C13  1  0.75000000  0.88215000  0.59205000  1.0
  C  C13  1  0.11785000  0.25000000  0.09205000  1.0
  C  C13  1  0.11785000  0.25000000  0.59205000  1.0
  C  C13  1  0.11785000  0.75000000  0.09205000  1.0
  C  C13  1  0.11785000  0.75000000  0.59205000  1.0
  C  C13  1  0.61785000  0.25000000  0.09205000  1.0
  C  C13  1  0.61785000  0.25000000  0.59205000  1.0
  C  C13  1  0.61785000  0.75000000  0.09205000  1.0
  C  C13  1  0.61785000  0.75000000  0.59205000  1.0
  C  C13  1  0.25000000  0.11785000  0.09205000  1.0
  C  C13  1  0.25000000  0.11785000  0.59205000  1.0
  C  C13  1  0.25000000  0.61785000  0.09205000  1.0
  C  C13  1  0.25000000  0.61785000  0.59205000  1.0
  C  C13  1  0.75000000  0.11785000  0.09205000  1.0
  C  C13  1  0.75000000  0.11785000  0.59205000  1.0
  C  C13  1  0.75000000  0.61785000  0.09205000  1.0
  C  C13  1  0.75000000  0.61785000  0.59205000  1.0
  C  C13  1  0.38215000  0.15795000  0.00000000  1.0
  C  C13  1  0.38215000  0.15795000  0.50000000  1.0
  C  C13  1  0.38215000  0.65795000  0.00000000  1.0
  C  C13  1  0.38215000  0.65795000  0.50000000  1.0
  C  C13  1  0.88215000  0.15795000  0.00000000  1.0
  C  C13  1  0.88215000  0.15795000  0.50000000  1.0
  C  C13  1  0.88215000  0.65795000  0.00000000  1.0
  C  C13  1  0.88215000  0.65795000  0.50000000  1.0
  C  C13  1  0.38215000  0.25000000  0.40795000  1.0
  C  C13  1  0.38215000  0.25000000  0.90795000  1.0
  C  C13  1  0.38215000  0.75000000  0.40795000  1.0
  C  C13  1  0.38215000  0.75000000  0.90795000  1.0
  C  C13  1  0.88215000  0.25000000  0.40795000  1.0
  C  C13  1  0.88215000  0.25000000  0.90795000  1.0
  C  C13  1  0.88215000  0.75000000  0.40795000  1.0
  C  C13  1  0.88215000  0.75000000  0.90795000  1.0
  C  C13  1  0.38215000  0.34205000  0.00000000  1.0
  C  C13  1  0.38215000  0.34205000  0.50000000  1.0
  C  C13  1  0.38215000  0.84205000  0.00000000  1.0
  C  C13  1  0.38215000  0.84205000  0.50000000  1.0
  C  C13  1  0.88215000  0.34205000  0.00000000  1.0
  C  C13  1  0.88215000  0.34205000  0.50000000  1.0
  C  C13  1  0.88215000  0.84205000  0.00000000  1.0
  C  C13  1  0.88215000  0.84205000  0.50000000  1.0
  C  C13  1  0.34205000  0.25000000  0.36785000  1.0
  C  C13  1  0.34205000  0.25000000  0.86785000  1.0
  C  C13  1  0.34205000  0.75000000  0.36785000  1.0
  C  C13  1  0.34205000  0.75000000  0.86785000  1.0
  C  C13  1  0.84205000  0.25000000  0.36785000  1.0
  C  C13  1  0.84205000  0.25000000  0.86785000  1.0
  C  C13  1  0.84205000  0.75000000  0.36785000  1.0
  C  C13  1  0.84205000  0.75000000  0.86785000  1.0
  C  C13  1  0.11785000  0.25000000  0.40795000  1.0
  C  C13  1  0.11785000  0.25000000  0.90795000  1.0
  C  C13  1  0.11785000  0.75000000  0.40795000  1.0
  C  C13  1  0.11785000  0.75000000  0.90795000  1.0
  C  C13  1  0.61785000  0.25000000  0.40795000  1.0
  C  C13  1  0.61785000  0.25000000  0.90795000  1.0
  C  C13  1  0.61785000  0.75000000  0.40795000  1.0
  C  C13  1  0.61785000  0.75000000  0.90795000  1.0
  C  C13  1  0.15795000  0.25000000  0.13215000  1.0
  C  C13  1  0.15795000  0.25000000  0.63215000  1.0
  C  C13  1  0.15795000  0.75000000  0.13215000  1.0
  C  C13  1  0.15795000  0.75000000  0.63215000  1.0
  C  C13  1  0.65795000  0.25000000  0.13215000  1.0
  C  C13  1  0.65795000  0.25000000  0.63215000  1.0
  C  C13  1  0.65795000  0.75000000  0.13215000  1.0
  C  C13  1  0.65795000  0.75000000  0.63215000  1.0
  C  C13  1  0.34205000  0.38215000  0.00000000  1.0
  C  C13  1  0.34205000  0.38215000  0.50000000  1.0
  C  C13  1  0.34205000  0.88215000  0.00000000  1.0
  C  C13  1  0.34205000  0.88215000  0.50000000  1.0
  C  C13  1  0.84205000  0.38215000  0.00000000  1.0
  C  C13  1  0.84205000  0.38215000  0.50000000  1.0
  C  C13  1  0.84205000  0.88215000  0.00000000  1.0
  C  C13  1  0.84205000  0.88215000  0.50000000  1.0
  C  C13  1  0.25000000  0.34205000  0.13215000  1.0
  C  C13  1  0.25000000  0.34205000  0.63215000  1.0
  C  C13  1  0.25000000  0.84205000  0.13215000  1.0
  C  C13  1  0.25000000  0.84205000  0.63215000  1.0
  C  C13  1  0.75000000  0.34205000  0.13215000  1.0
  C  C13  1  0.75000000  0.34205000  0.63215000  1.0
  C  C13  1  0.75000000  0.84205000  0.13215000  1.0
  C  C13  1  0.75000000  0.84205000  0.63215000  1.0
  C  C13  1  0.25000000  0.15795000  0.13215000  1.0
  C  C13  1  0.25000000  0.15795000  0.63215000  1.0
  C  C13  1  0.25000000  0.65795000  0.13215000  1.0
  C  C13  1  0.25000000  0.65795000  0.63215000  1.0
  C  C13  1  0.75000000  0.15795000  0.13215000  1.0
  C  C13  1  0.75000000  0.15795000  0.63215000  1.0
  C  C13  1  0.75000000  0.65795000  0.13215000  1.0
  C  C13  1  0.75000000  0.65795000  0.63215000  1.0
  C  C13  1  0.34205000  0.11785000  0.00000000  1.0
  C  C13  1  0.34205000  0.11785000  0.50000000  1.0
  C  C13  1  0.34205000  0.61785000  0.00000000  1.0
  C  C13  1  0.34205000  0.61785000  0.50000000  1.0
  C  C13  1  0.84205000  0.11785000  0.00000000  1.0
  C  C13  1  0.84205000  0.11785000  0.50000000  1.0
  C  C13  1  0.84205000  0.61785000  0.00000000  1.0
  C  C13  1  0.84205000  0.61785000  0.50000000  1.0
  C  C13  1  0.25000000  0.34205000  0.36785000  1.0
  C  C13  1  0.25000000  0.34205000  0.86785000  1.0
  C  C13  1  0.25000000  0.84205000  0.36785000  1.0
  C  C13  1  0.25000000  0.84205000  0.86785000  1.0
  C  C13  1  0.75000000  0.34205000  0.36785000  1.0
  C  C13  1  0.75000000  0.34205000  0.86785000  1.0
  C  C13  1  0.75000000  0.84205000  0.36785000  1.0
  C  C13  1  0.75000000  0.84205000  0.86785000  1.0
  C  C13  1  0.15795000  0.11785000  0.00000000  1.0
  C  C13  1  0.15795000  0.11785000  0.50000000  1.0
  C  C13  1  0.15795000  0.61785000  0.00000000  1.0
  C  C13  1  0.15795000  0.61785000  0.50000000  1.0
  C  C13  1  0.65795000  0.11785000  0.00000000  1.0
  C  C13  1  0.65795000  0.11785000  0.50000000  1.0
  C  C13  1  0.65795000  0.61785000  0.00000000  1.0
  C  C13  1  0.65795000  0.61785000  0.50000000  1.0
  C  C13  1  0.15795000  0.38215000  0.00000000  1.0
  C  C13  1  0.15795000  0.38215000  0.50000000  1.0
  C  C13  1  0.15795000  0.88215000  0.00000000  1.0
  C  C13  1  0.15795000  0.88215000  0.50000000  1.0
  C  C13  1  0.65795000  0.38215000  0.00000000  1.0
  C  C13  1  0.65795000  0.38215000  0.50000000  1.0
  C  C13  1  0.65795000  0.88215000  0.00000000  1.0
  C  C13  1  0.65795000  0.88215000  0.50000000  1.0
  C  C13  1  0.25000000  0.15795000  0.36785000  1.0
  C  C13  1  0.25000000  0.15795000  0.86785000  1.0
  C  C13  1  0.25000000  0.65795000  0.36785000  1.0
  C  C13  1  0.25000000  0.65795000  0.86785000  1.0
  C  C13  1  0.75000000  0.15795000  0.36785000  1.0
  C  C13  1  0.75000000  0.15795000  0.86785000  1.0
  C  C13  1  0.75000000  0.65795000  0.36785000  1.0
  C  C13  1  0.75000000  0.65795000  0.86785000  1.0
  C  C13  1  0.25000000  0.38215000  0.40795000  1.0
  C  C13  1  0.25000000  0.38215000  0.90795000  1.0
  C  C13  1  0.25000000  0.88215000  0.40795000  1.0
  C  C13  1  0.25000000  0.88215000  0.90795000  1.0
  C  C13  1  0.75000000  0.38215000  0.40795000  1.0
  C  C13  1  0.75000000  0.38215000  0.90795000  1.0
  C  C13  1  0.75000000  0.88215000  0.40795000  1.0
  C  C13  1  0.75000000  0.88215000  0.90795000  1.0
  C  C13  1  0.25000000  0.11785000  0.40795000  1.0
  C  C13  1  0.25000000  0.11785000  0.90795000  1.0
  C  C13  1  0.25000000  0.61785000  0.40795000  1.0
  C  C13  1  0.25000000  0.61785000  0.90795000  1.0
  C  C13  1  0.75000000  0.11785000  0.40795000  1.0
  C  C13  1  0.75000000  0.11785000  0.90795000  1.0
  C  C13  1  0.75000000  0.61785000  0.40795000  1.0
  C  C13  1  0.75000000  0.61785000  0.90795000  1.0
  C  C13  1  0.11785000  0.34205000  0.00000000  1.0
  C  C13  1  0.11785000  0.34205000  0.50000000  1.0
  C  C13  1  0.11785000  0.84205000  0.00000000  1.0
  C  C13  1  0.11785000  0.84205000  0.50000000  1.0
  C  C13  1  0.61785000  0.34205000  0.00000000  1.0
  C  C13  1  0.61785000  0.34205000  0.50000000  1.0
  C  C13  1  0.61785000  0.84205000  0.00000000  1.0
  C  C13  1  0.61785000  0.84205000  0.50000000  1.0
  C  C13  1  0.11785000  0.15795000  0.00000000  1.0
  C  C13  1  0.11785000  0.15795000  0.50000000  1.0
  C  C13  1  0.11785000  0.65795000  0.00000000  1.0
  C  C13  1  0.11785000  0.65795000  0.50000000  1.0
  C  C13  1  0.61785000  0.15795000  0.00000000  1.0
  C  C13  1  0.61785000  0.15795000  0.50000000  1.0
  C  C13  1  0.61785000  0.65795000  0.00000000  1.0
  C  C13  1  0.61785000  0.65795000  0.50000000  1.0
  C  C13  1  0.34205000  0.25000000  0.13215000  1.0
  C  C13  1  0.34205000  0.25000000  0.63215000  1.0
  C  C13  1  0.34205000  0.75000000  0.13215000  1.0
  C  C13  1  0.34205000  0.75000000  0.63215000  1.0
  C  C13  1  0.84205000  0.25000000  0.13215000  1.0
  C  C13  1  0.84205000  0.25000000  0.63215000  1.0
  C  C13  1  0.84205000  0.75000000  0.13215000  1.0
  C  C13  1  0.84205000  0.75000000  0.63215000  1.0
  C  C13  1  0.15795000  0.25000000  0.36785000  1.0
  C  C13  1  0.15795000  0.25000000  0.86785000  1.0
  C  C13  1  0.15795000  0.75000000  0.36785000  1.0
  C  C13  1  0.15795000  0.75000000  0.86785000  1.0
  C  C13  1  0.65795000  0.25000000  0.36785000  1.0
  C  C13  1  0.65795000  0.25000000  0.86785000  1.0
  C  C13  1  0.65795000  0.75000000  0.36785000  1.0
  C  C13  1  0.65795000  0.75000000  0.86785000  1.0
  O  O1  1  0.08630000  0.00000000  0.04800000  1.0
  O  O1  1  0.08630000  0.00000000  0.54800000  1.0
  O  O1  1  0.08630000  0.50000000  0.04800000  1.0
  O  O1  1  0.08630000  0.50000000  0.54800000  1.0
  O  O1  1  0.58630000  0.00000000  0.04800000  1.0
  O  O1  1  0.58630000  0.00000000  0.54800000  1.0
  O  O1  1  0.58630000  0.50000000  0.04800000  1.0
  O  O1  1  0.58630000  0.50000000  0.54800000  1.0
  O  O1  1  0.00000000  0.08630000  0.04800000  1.0
  O  O1  1  0.00000000  0.08630000  0.54800000  1.0
  O  O1  1  0.00000000  0.58630000  0.04800000  1.0
  O  O1  1  0.00000000  0.58630000  0.54800000  1.0
  O  O1  1  0.50000000  0.08630000  0.04800000  1.0
  O  O1  1  0.50000000  0.08630000  0.54800000  1.0
  O  O1  1  0.50000000  0.58630000  0.04800000  1.0
  O  O1  1  0.50000000  0.58630000  0.54800000  1.0
  O  O1  1  0.41370000  0.00000000  0.04800000  1.0
  O  O1  1  0.41370000  0.00000000  0.54800000  1.0
  O  O1  1  0.41370000  0.50000000  0.04800000  1.0
  O  O1  1  0.41370000  0.50000000  0.54800000  1.0
  O  O1  1  0.91370000  0.00000000  0.04800000  1.0
  O  O1  1  0.91370000  0.00000000  0.54800000  1.0
  O  O1  1  0.91370000  0.50000000  0.04800000  1.0
  O  O1  1  0.91370000  0.50000000  0.54800000  1.0
  O  O1  1  0.00000000  0.41370000  0.04800000  1.0
  O  O1  1  0.00000000  0.41370000  0.54800000  1.0
  O  O1  1  0.00000000  0.91370000  0.04800000  1.0
  O  O1  1  0.00000000  0.91370000  0.54800000  1.0
  O  O1  1  0.50000000  0.41370000  0.04800000  1.0
  O  O1  1  0.50000000  0.41370000  0.54800000  1.0
  O  O1  1  0.50000000  0.91370000  0.04800000  1.0
  O  O1  1  0.50000000  0.91370000  0.54800000  1.0
  O  O1  1  0.08630000  0.45200000  0.00000000  1.0
  O  O1  1  0.08630000  0.45200000  0.50000000  1.0
  O  O1  1  0.08630000  0.95200000  0.00000000  1.0
  O  O1  1  0.08630000  0.95200000  0.50000000  1.0
  O  O1  1  0.58630000  0.45200000  0.00000000  1.0
  O  O1  1  0.58630000  0.45200000  0.50000000  1.0
  O  O1  1  0.58630000  0.95200000  0.00000000  1.0
  O  O1  1  0.58630000  0.95200000  0.50000000  1.0
  O  O1  1  0.08630000  0.00000000  0.45200000  1.0
  O  O1  1  0.08630000  0.00000000  0.95200000  1.0
  O  O1  1  0.08630000  0.50000000  0.45200000  1.0
  O  O1  1  0.08630000  0.50000000  0.95200000  1.0
  O  O1  1  0.58630000  0.00000000  0.45200000  1.0
  O  O1  1  0.58630000  0.00000000  0.95200000  1.0
  O  O1  1  0.58630000  0.50000000  0.45200000  1.0
  O  O1  1  0.58630000  0.50000000  0.95200000  1.0
  O  O1  1  0.08630000  0.04800000  0.00000000  1.0
  O  O1  1  0.08630000  0.04800000  0.50000000  1.0
  O  O1  1  0.08630000  0.54800000  0.00000000  1.0
  O  O1  1  0.08630000  0.54800000  0.50000000  1.0
  O  O1  1  0.58630000  0.04800000  0.00000000  1.0
  O  O1  1  0.58630000  0.04800000  0.50000000  1.0
  O  O1  1  0.58630000  0.54800000  0.00000000  1.0
  O  O1  1  0.58630000  0.54800000  0.50000000  1.0
  O  O1  1  0.04800000  0.00000000  0.41370000  1.0
  O  O1  1  0.04800000  0.00000000  0.91370000  1.0
  O  O1  1  0.04800000  0.50000000  0.41370000  1.0
  O  O1  1  0.04800000  0.50000000  0.91370000  1.0
  O  O1  1  0.54800000  0.00000000  0.41370000  1.0
  O  O1  1  0.54800000  0.00000000  0.91370000  1.0
  O  O1  1  0.54800000  0.50000000  0.41370000  1.0
  O  O1  1  0.54800000  0.50000000  0.91370000  1.0
  O  O1  1  0.41370000  0.00000000  0.45200000  1.0
  O  O1  1  0.41370000  0.00000000  0.95200000  1.0
  O  O1  1  0.41370000  0.50000000  0.45200000  1.0
  O  O1  1  0.41370000  0.50000000  0.95200000  1.0
  O  O1  1  0.91370000  0.00000000  0.45200000  1.0
  O  O1  1  0.91370000  0.00000000  0.95200000  1.0
  O  O1  1  0.91370000  0.50000000  0.45200000  1.0
  O  O1  1  0.91370000  0.50000000  0.95200000  1.0
  O  O1  1  0.45200000  0.00000000  0.08630000  1.0
  O  O1  1  0.45200000  0.00000000  0.58630000  1.0
  O  O1  1  0.45200000  0.50000000  0.08630000  1.0
  O  O1  1  0.45200000  0.50000000  0.58630000  1.0
  O  O1  1  0.95200000  0.00000000  0.08630000  1.0
  O  O1  1  0.95200000  0.00000000  0.58630000  1.0
  O  O1  1  0.95200000  0.50000000  0.08630000  1.0
  O  O1  1  0.95200000  0.50000000  0.58630000  1.0
  O  O1  1  0.04800000  0.08630000  0.00000000  1.0
  O  O1  1  0.04800000  0.08630000  0.50000000  1.0
  O  O1  1  0.04800000  0.58630000  0.00000000  1.0
  O  O1  1  0.04800000  0.58630000  0.50000000  1.0
  O  O1  1  0.54800000  0.08630000  0.00000000  1.0
  O  O1  1  0.54800000  0.08630000  0.50000000  1.0
  O  O1  1  0.54800000  0.58630000  0.00000000  1.0
  O  O1  1  0.54800000  0.58630000  0.50000000  1.0
  O  O1  1  0.00000000  0.04800000  0.08630000  1.0
  O  O1  1  0.00000000  0.04800000  0.58630000  1.0
  O  O1  1  0.00000000  0.54800000  0.08630000  1.0
  O  O1  1  0.00000000  0.54800000  0.58630000  1.0
  O  O1  1  0.50000000  0.04800000  0.08630000  1.0
  O  O1  1  0.50000000  0.04800000  0.58630000  1.0
  O  O1  1  0.50000000  0.54800000  0.08630000  1.0
  O  O1  1  0.50000000  0.54800000  0.58630000  1.0
  O  O1  1  0.00000000  0.45200000  0.08630000  1.0
  O  O1  1  0.00000000  0.45200000  0.58630000  1.0
  O  O1  1  0.00000000  0.95200000  0.08630000  1.0
  O  O1  1  0.00000000  0.95200000  0.58630000  1.0
  O  O1  1  0.50000000  0.45200000  0.08630000  1.0
  O  O1  1  0.50000000  0.45200000  0.58630000  1.0
  O  O1  1  0.50000000  0.95200000  0.08630000  1.0
  O  O1  1  0.50000000  0.95200000  0.58630000  1.0
  O  O1  1  0.04800000  0.41370000  0.00000000  1.0
  O  O1  1  0.04800000  0.41370000  0.50000000  1.0
  O  O1  1  0.04800000  0.91370000  0.00000000  1.0
  O  O1  1  0.04800000  0.91370000  0.50000000  1.0
  O  O1  1  0.54800000  0.41370000  0.00000000  1.0
  O  O1  1  0.54800000  0.41370000  0.50000000  1.0
  O  O1  1  0.54800000  0.91370000  0.00000000  1.0
  O  O1  1  0.54800000  0.91370000  0.50000000  1.0
  O  O1  1  0.00000000  0.04800000  0.41370000  1.0
  O  O1  1  0.00000000  0.04800000  0.91370000  1.0
  O  O1  1  0.00000000  0.54800000  0.41370000  1.0
  O  O1  1  0.00000000  0.54800000  0.91370000  1.0
  O  O1  1  0.50000000  0.04800000  0.41370000  1.0
  O  O1  1  0.50000000  0.04800000  0.91370000  1.0
  O  O1  1  0.50000000  0.54800000  0.41370000  1.0
  O  O1  1  0.50000000  0.54800000  0.91370000  1.0
  O  O1  1  0.45200000  0.41370000  0.00000000  1.0
  O  O1  1  0.45200000  0.41370000  0.50000000  1.0
  O  O1  1  0.45200000  0.91370000  0.00000000  1.0
  O  O1  1  0.45200000  0.91370000  0.50000000  1.0
  O  O1  1  0.95200000  0.41370000  0.00000000  1.0
  O  O1  1  0.95200000  0.41370000  0.50000000  1.0
  O  O1  1  0.95200000  0.91370000  0.00000000  1.0
  O  O1  1  0.95200000  0.91370000  0.50000000  1.0
  O  O1  1  0.45200000  0.08630000  0.00000000  1.0
  O  O1  1  0.45200000  0.08630000  0.50000000  1.0
  O  O1  1  0.45200000  0.58630000  0.00000000  1.0
  O  O1  1  0.45200000  0.58630000  0.50000000  1.0
  O  O1  1  0.95200000  0.08630000  0.00000000  1.0
  O  O1  1  0.95200000  0.08630000  0.50000000  1.0
  O  O1  1  0.95200000  0.58630000  0.00000000  1.0
  O  O1  1  0.95200000  0.58630000  0.50000000  1.0
  O  O1  1  0.00000000  0.45200000  0.41370000  1.0
  O  O1  1  0.00000000  0.45200000  0.91370000  1.0
  O  O1  1  0.00000000  0.95200000  0.41370000  1.0
  O  O1  1  0.00000000  0.95200000  0.91370000  1.0
  O  O1  1  0.50000000  0.45200000  0.41370000  1.0
  O  O1  1  0.50000000  0.45200000  0.91370000  1.0
  O  O1  1  0.50000000  0.95200000  0.41370000  1.0
  O  O1  1  0.50000000  0.95200000  0.91370000  1.0
  O  O1  1  0.00000000  0.08630000  0.45200000  1.0
  O  O1  1  0.00000000  0.08630000  0.95200000  1.0
  O  O1  1  0.00000000  0.58630000  0.45200000  1.0
  O  O1  1  0.00000000  0.58630000  0.95200000  1.0
  O  O1  1  0.50000000  0.08630000  0.45200000  1.0
  O  O1  1  0.50000000  0.08630000  0.95200000  1.0
  O  O1  1  0.50000000  0.58630000  0.45200000  1.0
  O  O1  1  0.50000000  0.58630000  0.95200000  1.0
  O  O1  1  0.00000000  0.41370000  0.45200000  1.0
  O  O1  1  0.00000000  0.41370000  0.95200000  1.0
  O  O1  1  0.00000000  0.91370000  0.45200000  1.0
  O  O1  1  0.00000000  0.91370000  0.95200000  1.0
  O  O1  1  0.50000000  0.41370000  0.45200000  1.0
  O  O1  1  0.50000000  0.41370000  0.95200000  1.0
  O  O1  1  0.50000000  0.91370000  0.45200000  1.0
  O  O1  1  0.50000000  0.91370000  0.95200000  1.0
  O  O1  1  0.41370000  0.04800000  0.00000000  1.0
  O  O1  1  0.41370000  0.04800000  0.50000000  1.0
  O  O1  1  0.41370000  0.54800000  0.00000000  1.0
  O  O1  1  0.41370000  0.54800000  0.50000000  1.0
  O  O1  1  0.91370000  0.04800000  0.00000000  1.0
  O  O1  1  0.91370000  0.04800000  0.50000000  1.0
  O  O1  1  0.91370000  0.54800000  0.00000000  1.0
  O  O1  1  0.91370000  0.54800000  0.50000000  1.0
  O  O1  1  0.41370000  0.45200000  0.00000000  1.0
  O  O1  1  0.41370000  0.45200000  0.50000000  1.0
  O  O1  1  0.41370000  0.95200000  0.00000000  1.0
  O  O1  1  0.41370000  0.95200000  0.50000000  1.0
  O  O1  1  0.91370000  0.45200000  0.00000000  1.0
  O  O1  1  0.91370000  0.45200000  0.50000000  1.0
  O  O1  1  0.91370000  0.95200000  0.00000000  1.0
  O  O1  1  0.91370000  0.95200000  0.50000000  1.0
  O  O1  1  0.04800000  0.00000000  0.08630000  1.0
  O  O1  1  0.04800000  0.00000000  0.58630000  1.0
  O  O1  1  0.04800000  0.50000000  0.08630000  1.0
  O  O1  1  0.04800000  0.50000000  0.58630000  1.0
  O  O1  1  0.54800000  0.00000000  0.08630000  1.0
  O  O1  1  0.54800000  0.00000000  0.58630000  1.0
  O  O1  1  0.54800000  0.50000000  0.08630000  1.0
  O  O1  1  0.54800000  0.50000000  0.58630000  1.0
  O  O1  1  0.45200000  0.00000000  0.41370000  1.0
  O  O1  1  0.45200000  0.00000000  0.91370000  1.0
  O  O1  1  0.45200000  0.50000000  0.41370000  1.0
  O  O1  1  0.45200000  0.50000000  0.91370000  1.0
  O  O1  1  0.95200000  0.00000000  0.41370000  1.0
  O  O1  1  0.95200000  0.00000000  0.91370000  1.0
  O  O1  1  0.95200000  0.50000000  0.41370000  1.0
  O  O1  1  0.95200000  0.50000000  0.91370000  1.0
  O  O1  1  0.08630000  0.25000000  0.29800000  1.0
  O  O1  1  0.08630000  0.25000000  0.79800000  1.0
  O  O1  1  0.08630000  0.75000000  0.29800000  1.0
  O  O1  1  0.08630000  0.75000000  0.79800000  1.0
  O  O1  1  0.58630000  0.25000000  0.29800000  1.0
  O  O1  1  0.58630000  0.25000000  0.79800000  1.0
  O  O1  1  0.58630000  0.75000000  0.29800000  1.0
  O  O1  1  0.58630000  0.75000000  0.79800000  1.0
  O  O1  1  0.00000000  0.33630000  0.29800000  1.0
  O  O1  1  0.00000000  0.33630000  0.79800000  1.0
  O  O1  1  0.00000000  0.83630000  0.29800000  1.0
  O  O1  1  0.00000000  0.83630000  0.79800000  1.0
  O  O1  1  0.50000000  0.33630000  0.29800000  1.0
  O  O1  1  0.50000000  0.33630000  0.79800000  1.0
  O  O1  1  0.50000000  0.83630000  0.29800000  1.0
  O  O1  1  0.50000000  0.83630000  0.79800000  1.0
  O  O1  1  0.41370000  0.25000000  0.29800000  1.0
  O  O1  1  0.41370000  0.25000000  0.79800000  1.0
  O  O1  1  0.41370000  0.75000000  0.29800000  1.0
  O  O1  1  0.41370000  0.75000000  0.79800000  1.0
  O  O1  1  0.91370000  0.25000000  0.29800000  1.0
  O  O1  1  0.91370000  0.25000000  0.79800000  1.0
  O  O1  1  0.91370000  0.75000000  0.29800000  1.0
  O  O1  1  0.91370000  0.75000000  0.79800000  1.0
  O  O1  1  0.00000000  0.16370000  0.29800000  1.0
  O  O1  1  0.00000000  0.16370000  0.79800000  1.0
  O  O1  1  0.00000000  0.66370000  0.29800000  1.0
  O  O1  1  0.00000000  0.66370000  0.79800000  1.0
  O  O1  1  0.50000000  0.16370000  0.29800000  1.0
  O  O1  1  0.50000000  0.16370000  0.79800000  1.0
  O  O1  1  0.50000000  0.66370000  0.29800000  1.0
  O  O1  1  0.50000000  0.66370000  0.79800000  1.0
  O  O1  1  0.08630000  0.20200000  0.25000000  1.0
  O  O1  1  0.08630000  0.20200000  0.75000000  1.0
  O  O1  1  0.08630000  0.70200000  0.25000000  1.0
  O  O1  1  0.08630000  0.70200000  0.75000000  1.0
  O  O1  1  0.58630000  0.20200000  0.25000000  1.0
  O  O1  1  0.58630000  0.20200000  0.75000000  1.0
  O  O1  1  0.58630000  0.70200000  0.25000000  1.0
  O  O1  1  0.58630000  0.70200000  0.75000000  1.0
  O  O1  1  0.08630000  0.25000000  0.20200000  1.0
  O  O1  1  0.08630000  0.25000000  0.70200000  1.0
  O  O1  1  0.08630000  0.75000000  0.20200000  1.0
  O  O1  1  0.08630000  0.75000000  0.70200000  1.0
  O  O1  1  0.58630000  0.25000000  0.20200000  1.0
  O  O1  1  0.58630000  0.25000000  0.70200000  1.0
  O  O1  1  0.58630000  0.75000000  0.20200000  1.0
  O  O1  1  0.58630000  0.75000000  0.70200000  1.0
  O  O1  1  0.08630000  0.29800000  0.25000000  1.0
  O  O1  1  0.08630000  0.29800000  0.75000000  1.0
  O  O1  1  0.08630000  0.79800000  0.25000000  1.0
  O  O1  1  0.08630000  0.79800000  0.75000000  1.0
  O  O1  1  0.58630000  0.29800000  0.25000000  1.0
  O  O1  1  0.58630000  0.29800000  0.75000000  1.0
  O  O1  1  0.58630000  0.79800000  0.25000000  1.0
  O  O1  1  0.58630000  0.79800000  0.75000000  1.0
  O  O1  1  0.04800000  0.25000000  0.16370000  1.0
  O  O1  1  0.04800000  0.25000000  0.66370000  1.0
  O  O1  1  0.04800000  0.75000000  0.16370000  1.0
  O  O1  1  0.04800000  0.75000000  0.66370000  1.0
  O  O1  1  0.54800000  0.25000000  0.16370000  1.0
  O  O1  1  0.54800000  0.25000000  0.66370000  1.0
  O  O1  1  0.54800000  0.75000000  0.16370000  1.0
  O  O1  1  0.54800000  0.75000000  0.66370000  1.0
  O  O1  1  0.41370000  0.25000000  0.20200000  1.0
  O  O1  1  0.41370000  0.25000000  0.70200000  1.0
  O  O1  1  0.41370000  0.75000000  0.20200000  1.0
  O  O1  1  0.41370000  0.75000000  0.70200000  1.0
  O  O1  1  0.91370000  0.25000000  0.20200000  1.0
  O  O1  1  0.91370000  0.25000000  0.70200000  1.0
  O  O1  1  0.91370000  0.75000000  0.20200000  1.0
  O  O1  1  0.91370000  0.75000000  0.70200000  1.0
  O  O1  1  0.45200000  0.25000000  0.33630000  1.0
  O  O1  1  0.45200000  0.25000000  0.83630000  1.0
  O  O1  1  0.45200000  0.75000000  0.33630000  1.0
  O  O1  1  0.45200000  0.75000000  0.83630000  1.0
  O  O1  1  0.95200000  0.25000000  0.33630000  1.0
  O  O1  1  0.95200000  0.25000000  0.83630000  1.0
  O  O1  1  0.95200000  0.75000000  0.33630000  1.0
  O  O1  1  0.95200000  0.75000000  0.83630000  1.0
  O  O1  1  0.04800000  0.33630000  0.25000000  1.0
  O  O1  1  0.04800000  0.33630000  0.75000000  1.0
  O  O1  1  0.04800000  0.83630000  0.25000000  1.0
  O  O1  1  0.04800000  0.83630000  0.75000000  1.0
  O  O1  1  0.54800000  0.33630000  0.25000000  1.0
  O  O1  1  0.54800000  0.33630000  0.75000000  1.0
  O  O1  1  0.54800000  0.83630000  0.25000000  1.0
  O  O1  1  0.54800000  0.83630000  0.75000000  1.0
  O  O1  1  0.00000000  0.29800000  0.33630000  1.0
  O  O1  1  0.00000000  0.29800000  0.83630000  1.0
  O  O1  1  0.00000000  0.79800000  0.33630000  1.0
  O  O1  1  0.00000000  0.79800000  0.83630000  1.0
  O  O1  1  0.50000000  0.29800000  0.33630000  1.0
  O  O1  1  0.50000000  0.29800000  0.83630000  1.0
  O  O1  1  0.50000000  0.79800000  0.33630000  1.0
  O  O1  1  0.50000000  0.79800000  0.83630000  1.0
  O  O1  1  0.00000000  0.20200000  0.33630000  1.0
  O  O1  1  0.00000000  0.20200000  0.83630000  1.0
  O  O1  1  0.00000000  0.70200000  0.33630000  1.0
  O  O1  1  0.00000000  0.70200000  0.83630000  1.0
  O  O1  1  0.50000000  0.20200000  0.33630000  1.0
  O  O1  1  0.50000000  0.20200000  0.83630000  1.0
  O  O1  1  0.50000000  0.70200000  0.33630000  1.0
  O  O1  1  0.50000000  0.70200000  0.83630000  1.0
  O  O1  1  0.04800000  0.16370000  0.25000000  1.0
  O  O1  1  0.04800000  0.16370000  0.75000000  1.0
  O  O1  1  0.04800000  0.66370000  0.25000000  1.0
  O  O1  1  0.04800000  0.66370000  0.75000000  1.0
  O  O1  1  0.54800000  0.16370000  0.25000000  1.0
  O  O1  1  0.54800000  0.16370000  0.75000000  1.0
  O  O1  1  0.54800000  0.66370000  0.25000000  1.0
  O  O1  1  0.54800000  0.66370000  0.75000000  1.0
  O  O1  1  0.00000000  0.29800000  0.16370000  1.0
  O  O1  1  0.00000000  0.29800000  0.66370000  1.0
  O  O1  1  0.00000000  0.79800000  0.16370000  1.0
  O  O1  1  0.00000000  0.79800000  0.66370000  1.0
  O  O1  1  0.50000000  0.29800000  0.16370000  1.0
  O  O1  1  0.50000000  0.29800000  0.66370000  1.0
  O  O1  1  0.50000000  0.79800000  0.16370000  1.0
  O  O1  1  0.50000000  0.79800000  0.66370000  1.0
  O  O1  1  0.45200000  0.16370000  0.25000000  1.0
  O  O1  1  0.45200000  0.16370000  0.75000000  1.0
  O  O1  1  0.45200000  0.66370000  0.25000000  1.0
  O  O1  1  0.45200000  0.66370000  0.75000000  1.0
  O  O1  1  0.95200000  0.16370000  0.25000000  1.0
  O  O1  1  0.95200000  0.16370000  0.75000000  1.0
  O  O1  1  0.95200000  0.66370000  0.25000000  1.0
  O  O1  1  0.95200000  0.66370000  0.75000000  1.0
  O  O1  1  0.45200000  0.33630000  0.25000000  1.0
  O  O1  1  0.45200000  0.33630000  0.75000000  1.0
  O  O1  1  0.45200000  0.83630000  0.25000000  1.0
  O  O1  1  0.45200000  0.83630000  0.75000000  1.0
  O  O1  1  0.95200000  0.33630000  0.25000000  1.0
  O  O1  1  0.95200000  0.33630000  0.75000000  1.0
  O  O1  1  0.95200000  0.83630000  0.25000000  1.0
  O  O1  1  0.95200000  0.83630000  0.75000000  1.0
  O  O1  1  0.00000000  0.20200000  0.16370000  1.0
  O  O1  1  0.00000000  0.20200000  0.66370000  1.0
  O  O1  1  0.00000000  0.70200000  0.16370000  1.0
  O  O1  1  0.00000000  0.70200000  0.66370000  1.0
  O  O1  1  0.50000000  0.20200000  0.16370000  1.0
  O  O1  1  0.50000000  0.20200000  0.66370000  1.0
  O  O1  1  0.50000000  0.70200000  0.16370000  1.0
  O  O1  1  0.50000000  0.70200000  0.66370000  1.0
  O  O1  1  0.00000000  0.33630000  0.20200000  1.0
  O  O1  1  0.00000000  0.33630000  0.70200000  1.0
  O  O1  1  0.00000000  0.83630000  0.20200000  1.0
  O  O1  1  0.00000000  0.83630000  0.70200000  1.0
  O  O1  1  0.50000000  0.33630000  0.20200000  1.0
  O  O1  1  0.50000000  0.33630000  0.70200000  1.0
  O  O1  1  0.50000000  0.83630000  0.20200000  1.0
  O  O1  1  0.50000000  0.83630000  0.70200000  1.0
  O  O1  1  0.00000000  0.16370000  0.20200000  1.0
  O  O1  1  0.00000000  0.16370000  0.70200000  1.0
  O  O1  1  0.00000000  0.66370000  0.20200000  1.0
  O  O1  1  0.00000000  0.66370000  0.70200000  1.0
  O  O1  1  0.50000000  0.16370000  0.20200000  1.0
  O  O1  1  0.50000000  0.16370000  0.70200000  1.0
  O  O1  1  0.50000000  0.66370000  0.20200000  1.0
  O  O1  1  0.50000000  0.66370000  0.70200000  1.0
  O  O1  1  0.41370000  0.29800000  0.25000000  1.0
  O  O1  1  0.41370000  0.29800000  0.75000000  1.0
  O  O1  1  0.41370000  0.79800000  0.25000000  1.0
  O  O1  1  0.41370000  0.79800000  0.75000000  1.0
  O  O1  1  0.91370000  0.29800000  0.25000000  1.0
  O  O1  1  0.91370000  0.29800000  0.75000000  1.0
  O  O1  1  0.91370000  0.79800000  0.25000000  1.0
  O  O1  1  0.91370000  0.79800000  0.75000000  1.0
  O  O1  1  0.41370000  0.20200000  0.25000000  1.0
  O  O1  1  0.41370000  0.20200000  0.75000000  1.0
  O  O1  1  0.41370000  0.70200000  0.25000000  1.0
  O  O1  1  0.41370000  0.70200000  0.75000000  1.0
  O  O1  1  0.91370000  0.20200000  0.25000000  1.0
  O  O1  1  0.91370000  0.20200000  0.75000000  1.0
  O  O1  1  0.91370000  0.70200000  0.25000000  1.0
  O  O1  1  0.91370000  0.70200000  0.75000000  1.0
  O  O1  1  0.04800000  0.25000000  0.33630000  1.0
  O  O1  1  0.04800000  0.25000000  0.83630000  1.0
  O  O1  1  0.04800000  0.75000000  0.33630000  1.0
  O  O1  1  0.04800000  0.75000000  0.83630000  1.0
  O  O1  1  0.54800000  0.25000000  0.33630000  1.0
  O  O1  1  0.54800000  0.25000000  0.83630000  1.0
  O  O1  1  0.54800000  0.75000000  0.33630000  1.0
  O  O1  1  0.54800000  0.75000000  0.83630000  1.0
  O  O1  1  0.45200000  0.25000000  0.16370000  1.0
  O  O1  1  0.45200000  0.25000000  0.66370000  1.0
  O  O1  1  0.45200000  0.75000000  0.16370000  1.0
  O  O1  1  0.45200000  0.75000000  0.66370000  1.0
  O  O1  1  0.95200000  0.25000000  0.16370000  1.0
  O  O1  1  0.95200000  0.25000000  0.66370000  1.0
  O  O1  1  0.95200000  0.75000000  0.16370000  1.0
  O  O1  1  0.95200000  0.75000000  0.66370000  1.0
  O  O1  1  0.33630000  0.00000000  0.29800000  1.0
  O  O1  1  0.33630000  0.00000000  0.79800000  1.0
  O  O1  1  0.33630000  0.50000000  0.29800000  1.0
  O  O1  1  0.33630000  0.50000000  0.79800000  1.0
  O  O1  1  0.83630000  0.00000000  0.29800000  1.0
  O  O1  1  0.83630000  0.00000000  0.79800000  1.0
  O  O1  1  0.83630000  0.50000000  0.29800000  1.0
  O  O1  1  0.83630000  0.50000000  0.79800000  1.0
  O  O1  1  0.25000000  0.08630000  0.29800000  1.0
  O  O1  1  0.25000000  0.08630000  0.79800000  1.0
  O  O1  1  0.25000000  0.58630000  0.29800000  1.0
  O  O1  1  0.25000000  0.58630000  0.79800000  1.0
  O  O1  1  0.75000000  0.08630000  0.29800000  1.0
  O  O1  1  0.75000000  0.08630000  0.79800000  1.0
  O  O1  1  0.75000000  0.58630000  0.29800000  1.0
  O  O1  1  0.75000000  0.58630000  0.79800000  1.0
  O  O1  1  0.16370000  0.00000000  0.29800000  1.0
  O  O1  1  0.16370000  0.00000000  0.79800000  1.0
  O  O1  1  0.16370000  0.50000000  0.29800000  1.0
  O  O1  1  0.16370000  0.50000000  0.79800000  1.0
  O  O1  1  0.66370000  0.00000000  0.29800000  1.0
  O  O1  1  0.66370000  0.00000000  0.79800000  1.0
  O  O1  1  0.66370000  0.50000000  0.29800000  1.0
  O  O1  1  0.66370000  0.50000000  0.79800000  1.0
  O  O1  1  0.25000000  0.41370000  0.29800000  1.0
  O  O1  1  0.25000000  0.41370000  0.79800000  1.0
  O  O1  1  0.25000000  0.91370000  0.29800000  1.0
  O  O1  1  0.25000000  0.91370000  0.79800000  1.0
  O  O1  1  0.75000000  0.41370000  0.29800000  1.0
  O  O1  1  0.75000000  0.41370000  0.79800000  1.0
  O  O1  1  0.75000000  0.91370000  0.29800000  1.0
  O  O1  1  0.75000000  0.91370000  0.79800000  1.0
  O  O1  1  0.33630000  0.45200000  0.25000000  1.0
  O  O1  1  0.33630000  0.45200000  0.75000000  1.0
  O  O1  1  0.33630000  0.95200000  0.25000000  1.0
  O  O1  1  0.33630000  0.95200000  0.75000000  1.0
  O  O1  1  0.83630000  0.45200000  0.25000000  1.0
  O  O1  1  0.83630000  0.45200000  0.75000000  1.0
  O  O1  1  0.83630000  0.95200000  0.25000000  1.0
  O  O1  1  0.83630000  0.95200000  0.75000000  1.0
  O  O1  1  0.33630000  0.00000000  0.20200000  1.0
  O  O1  1  0.33630000  0.00000000  0.70200000  1.0
  O  O1  1  0.33630000  0.50000000  0.20200000  1.0
  O  O1  1  0.33630000  0.50000000  0.70200000  1.0
  O  O1  1  0.83630000  0.00000000  0.20200000  1.0
  O  O1  1  0.83630000  0.00000000  0.70200000  1.0
  O  O1  1  0.83630000  0.50000000  0.20200000  1.0
  O  O1  1  0.83630000  0.50000000  0.70200000  1.0
  O  O1  1  0.33630000  0.04800000  0.25000000  1.0
  O  O1  1  0.33630000  0.04800000  0.75000000  1.0
  O  O1  1  0.33630000  0.54800000  0.25000000  1.0
  O  O1  1  0.33630000  0.54800000  0.75000000  1.0
  O  O1  1  0.83630000  0.04800000  0.25000000  1.0
  O  O1  1  0.83630000  0.04800000  0.75000000  1.0
  O  O1  1  0.83630000  0.54800000  0.25000000  1.0
  O  O1  1  0.83630000  0.54800000  0.75000000  1.0
  O  O1  1  0.29800000  0.00000000  0.16370000  1.0
  O  O1  1  0.29800000  0.00000000  0.66370000  1.0
  O  O1  1  0.29800000  0.50000000  0.16370000  1.0
  O  O1  1  0.29800000  0.50000000  0.66370000  1.0
  O  O1  1  0.79800000  0.00000000  0.16370000  1.0
  O  O1  1  0.79800000  0.00000000  0.66370000  1.0
  O  O1  1  0.79800000  0.50000000  0.16370000  1.0
  O  O1  1  0.79800000  0.50000000  0.66370000  1.0
  O  O1  1  0.16370000  0.00000000  0.20200000  1.0
  O  O1  1  0.16370000  0.00000000  0.70200000  1.0
  O  O1  1  0.16370000  0.50000000  0.20200000  1.0
  O  O1  1  0.16370000  0.50000000  0.70200000  1.0
  O  O1  1  0.66370000  0.00000000  0.20200000  1.0
  O  O1  1  0.66370000  0.00000000  0.70200000  1.0
  O  O1  1  0.66370000  0.50000000  0.20200000  1.0
  O  O1  1  0.66370000  0.50000000  0.70200000  1.0
  O  O1  1  0.20200000  0.00000000  0.33630000  1.0
  O  O1  1  0.20200000  0.00000000  0.83630000  1.0
  O  O1  1  0.20200000  0.50000000  0.33630000  1.0
  O  O1  1  0.20200000  0.50000000  0.83630000  1.0
  O  O1  1  0.70200000  0.00000000  0.33630000  1.0
  O  O1  1  0.70200000  0.00000000  0.83630000  1.0
  O  O1  1  0.70200000  0.50000000  0.33630000  1.0
  O  O1  1  0.70200000  0.50000000  0.83630000  1.0
  O  O1  1  0.29800000  0.08630000  0.25000000  1.0
  O  O1  1  0.29800000  0.08630000  0.75000000  1.0
  O  O1  1  0.29800000  0.58630000  0.25000000  1.0
  O  O1  1  0.29800000  0.58630000  0.75000000  1.0
  O  O1  1  0.79800000  0.08630000  0.25000000  1.0
  O  O1  1  0.79800000  0.08630000  0.75000000  1.0
  O  O1  1  0.79800000  0.58630000  0.25000000  1.0
  O  O1  1  0.79800000  0.58630000  0.75000000  1.0
  O  O1  1  0.25000000  0.04800000  0.33630000  1.0
  O  O1  1  0.25000000  0.04800000  0.83630000  1.0
  O  O1  1  0.25000000  0.54800000  0.33630000  1.0
  O  O1  1  0.25000000  0.54800000  0.83630000  1.0
  O  O1  1  0.75000000  0.04800000  0.33630000  1.0
  O  O1  1  0.75000000  0.04800000  0.83630000  1.0
  O  O1  1  0.75000000  0.54800000  0.33630000  1.0
  O  O1  1  0.75000000  0.54800000  0.83630000  1.0
  O  O1  1  0.25000000  0.45200000  0.33630000  1.0
  O  O1  1  0.25000000  0.45200000  0.83630000  1.0
  O  O1  1  0.25000000  0.95200000  0.33630000  1.0
  O  O1  1  0.25000000  0.95200000  0.83630000  1.0
  O  O1  1  0.75000000  0.45200000  0.33630000  1.0
  O  O1  1  0.75000000  0.45200000  0.83630000  1.0
  O  O1  1  0.75000000  0.95200000  0.33630000  1.0
  O  O1  1  0.75000000  0.95200000  0.83630000  1.0
  O  O1  1  0.29800000  0.41370000  0.25000000  1.0
  O  O1  1  0.29800000  0.41370000  0.75000000  1.0
  O  O1  1  0.29800000  0.91370000  0.25000000  1.0
  O  O1  1  0.29800000  0.91370000  0.75000000  1.0
  O  O1  1  0.79800000  0.41370000  0.25000000  1.0
  O  O1  1  0.79800000  0.41370000  0.75000000  1.0
  O  O1  1  0.79800000  0.91370000  0.25000000  1.0
  O  O1  1  0.79800000  0.91370000  0.75000000  1.0
  O  O1  1  0.25000000  0.04800000  0.16370000  1.0
  O  O1  1  0.25000000  0.04800000  0.66370000  1.0
  O  O1  1  0.25000000  0.54800000  0.16370000  1.0
  O  O1  1  0.25000000  0.54800000  0.66370000  1.0
  O  O1  1  0.75000000  0.04800000  0.16370000  1.0
  O  O1  1  0.75000000  0.04800000  0.66370000  1.0
  O  O1  1  0.75000000  0.54800000  0.16370000  1.0
  O  O1  1  0.75000000  0.54800000  0.66370000  1.0
  O  O1  1  0.20200000  0.41370000  0.25000000  1.0
  O  O1  1  0.20200000  0.41370000  0.75000000  1.0
  O  O1  1  0.20200000  0.91370000  0.25000000  1.0
  O  O1  1  0.20200000  0.91370000  0.75000000  1.0
  O  O1  1  0.70200000  0.41370000  0.25000000  1.0
  O  O1  1  0.70200000  0.41370000  0.75000000  1.0
  O  O1  1  0.70200000  0.91370000  0.25000000  1.0
  O  O1  1  0.70200000  0.91370000  0.75000000  1.0
  O  O1  1  0.20200000  0.08630000  0.25000000  1.0
  O  O1  1  0.20200000  0.08630000  0.75000000  1.0
  O  O1  1  0.20200000  0.58630000  0.25000000  1.0
  O  O1  1  0.20200000  0.58630000  0.75000000  1.0
  O  O1  1  0.70200000  0.08630000  0.25000000  1.0
  O  O1  1  0.70200000  0.08630000  0.75000000  1.0
  O  O1  1  0.70200000  0.58630000  0.25000000  1.0
  O  O1  1  0.70200000  0.58630000  0.75000000  1.0
  O  O1  1  0.25000000  0.45200000  0.16370000  1.0
  O  O1  1  0.25000000  0.45200000  0.66370000  1.0
  O  O1  1  0.25000000  0.95200000  0.16370000  1.0
  O  O1  1  0.25000000  0.95200000  0.66370000  1.0
  O  O1  1  0.75000000  0.45200000  0.16370000  1.0
  O  O1  1  0.75000000  0.45200000  0.66370000  1.0
  O  O1  1  0.75000000  0.95200000  0.16370000  1.0
  O  O1  1  0.75000000  0.95200000  0.66370000  1.0
  O  O1  1  0.25000000  0.08630000  0.20200000  1.0
  O  O1  1  0.25000000  0.08630000  0.70200000  1.0
  O  O1  1  0.25000000  0.58630000  0.20200000  1.0
  O  O1  1  0.25000000  0.58630000  0.70200000  1.0
  O  O1  1  0.75000000  0.08630000  0.20200000  1.0
  O  O1  1  0.75000000  0.08630000  0.70200000  1.0
  O  O1  1  0.75000000  0.58630000  0.20200000  1.0
  O  O1  1  0.75000000  0.58630000  0.70200000  1.0
  O  O1  1  0.25000000  0.41370000  0.20200000  1.0
  O  O1  1  0.25000000  0.41370000  0.70200000  1.0
  O  O1  1  0.25000000  0.91370000  0.20200000  1.0
  O  O1  1  0.25000000  0.91370000  0.70200000  1.0
  O  O1  1  0.75000000  0.41370000  0.20200000  1.0
  O  O1  1  0.75000000  0.41370000  0.70200000  1.0
  O  O1  1  0.75000000  0.91370000  0.20200000  1.0
  O  O1  1  0.75000000  0.91370000  0.70200000  1.0
  O  O1  1  0.16370000  0.04800000  0.25000000  1.0
  O  O1  1  0.16370000  0.04800000  0.75000000  1.0
  O  O1  1  0.16370000  0.54800000  0.25000000  1.0
  O  O1  1  0.16370000  0.54800000  0.75000000  1.0
  O  O1  1  0.66370000  0.04800000  0.25000000  1.0
  O  O1  1  0.66370000  0.04800000  0.75000000  1.0
  O  O1  1  0.66370000  0.54800000  0.25000000  1.0
  O  O1  1  0.66370000  0.54800000  0.75000000  1.0
  O  O1  1  0.16370000  0.45200000  0.25000000  1.0
  O  O1  1  0.16370000  0.45200000  0.75000000  1.0
  O  O1  1  0.16370000  0.95200000  0.25000000  1.0
  O  O1  1  0.16370000  0.95200000  0.75000000  1.0
  O  O1  1  0.66370000  0.45200000  0.25000000  1.0
  O  O1  1  0.66370000  0.45200000  0.75000000  1.0
  O  O1  1  0.66370000  0.95200000  0.25000000  1.0
  O  O1  1  0.66370000  0.95200000  0.75000000  1.0
  O  O1  1  0.29800000  0.00000000  0.33630000  1.0
  O  O1  1  0.29800000  0.00000000  0.83630000  1.0
  O  O1  1  0.29800000  0.50000000  0.33630000  1.0
  O  O1  1  0.29800000  0.50000000  0.83630000  1.0
  O  O1  1  0.79800000  0.00000000  0.33630000  1.0
  O  O1  1  0.79800000  0.00000000  0.83630000  1.0
  O  O1  1  0.79800000  0.50000000  0.33630000  1.0
  O  O1  1  0.79800000  0.50000000  0.83630000  1.0
  O  O1  1  0.20200000  0.00000000  0.16370000  1.0
  O  O1  1  0.20200000  0.00000000  0.66370000  1.0
  O  O1  1  0.20200000  0.50000000  0.16370000  1.0
  O  O1  1  0.20200000  0.50000000  0.66370000  1.0
  O  O1  1  0.70200000  0.00000000  0.16370000  1.0
  O  O1  1  0.70200000  0.00000000  0.66370000  1.0
  O  O1  1  0.70200000  0.50000000  0.16370000  1.0
  O  O1  1  0.70200000  0.50000000  0.66370000  1.0
  O  O1  1  0.33630000  0.25000000  0.04800000  1.0
  O  O1  1  0.33630000  0.25000000  0.54800000  1.0
  O  O1  1  0.33630000  0.75000000  0.04800000  1.0
  O  O1  1  0.33630000  0.75000000  0.54800000  1.0
  O  O1  1  0.83630000  0.25000000  0.04800000  1.0
  O  O1  1  0.83630000  0.25000000  0.54800000  1.0
  O  O1  1  0.83630000  0.75000000  0.04800000  1.0
  O  O1  1  0.83630000  0.75000000  0.54800000  1.0
  O  O1  1  0.25000000  0.33630000  0.04800000  1.0
  O  O1  1  0.25000000  0.33630000  0.54800000  1.0
  O  O1  1  0.25000000  0.83630000  0.04800000  1.0
  O  O1  1  0.25000000  0.83630000  0.54800000  1.0
  O  O1  1  0.75000000  0.33630000  0.04800000  1.0
  O  O1  1  0.75000000  0.33630000  0.54800000  1.0
  O  O1  1  0.75000000  0.83630000  0.04800000  1.0
  O  O1  1  0.75000000  0.83630000  0.54800000  1.0
  O  O1  1  0.16370000  0.25000000  0.04800000  1.0
  O  O1  1  0.16370000  0.25000000  0.54800000  1.0
  O  O1  1  0.16370000  0.75000000  0.04800000  1.0
  O  O1  1  0.16370000  0.75000000  0.54800000  1.0
  O  O1  1  0.66370000  0.25000000  0.04800000  1.0
  O  O1  1  0.66370000  0.25000000  0.54800000  1.0
  O  O1  1  0.66370000  0.75000000  0.04800000  1.0
  O  O1  1  0.66370000  0.75000000  0.54800000  1.0
  O  O1  1  0.25000000  0.16370000  0.04800000  1.0
  O  O1  1  0.25000000  0.16370000  0.54800000  1.0
  O  O1  1  0.25000000  0.66370000  0.04800000  1.0
  O  O1  1  0.25000000  0.66370000  0.54800000  1.0
  O  O1  1  0.75000000  0.16370000  0.04800000  1.0
  O  O1  1  0.75000000  0.16370000  0.54800000  1.0
  O  O1  1  0.75000000  0.66370000  0.04800000  1.0
  O  O1  1  0.75000000  0.66370000  0.54800000  1.0
  O  O1  1  0.33630000  0.20200000  0.00000000  1.0
  O  O1  1  0.33630000  0.20200000  0.50000000  1.0
  O  O1  1  0.33630000  0.70200000  0.00000000  1.0
  O  O1  1  0.33630000  0.70200000  0.50000000  1.0
  O  O1  1  0.83630000  0.20200000  0.00000000  1.0
  O  O1  1  0.83630000  0.20200000  0.50000000  1.0
  O  O1  1  0.83630000  0.70200000  0.00000000  1.0
  O  O1  1  0.83630000  0.70200000  0.50000000  1.0
  O  O1  1  0.33630000  0.25000000  0.45200000  1.0
  O  O1  1  0.33630000  0.25000000  0.95200000  1.0
  O  O1  1  0.33630000  0.75000000  0.45200000  1.0
  O  O1  1  0.33630000  0.75000000  0.95200000  1.0
  O  O1  1  0.83630000  0.25000000  0.45200000  1.0
  O  O1  1  0.83630000  0.25000000  0.95200000  1.0
  O  O1  1  0.83630000  0.75000000  0.45200000  1.0
  O  O1  1  0.83630000  0.75000000  0.95200000  1.0
  O  O1  1  0.33630000  0.29800000  0.00000000  1.0
  O  O1  1  0.33630000  0.29800000  0.50000000  1.0
  O  O1  1  0.33630000  0.79800000  0.00000000  1.0
  O  O1  1  0.33630000  0.79800000  0.50000000  1.0
  O  O1  1  0.83630000  0.29800000  0.00000000  1.0
  O  O1  1  0.83630000  0.29800000  0.50000000  1.0
  O  O1  1  0.83630000  0.79800000  0.00000000  1.0
  O  O1  1  0.83630000  0.79800000  0.50000000  1.0
  O  O1  1  0.29800000  0.25000000  0.41370000  1.0
  O  O1  1  0.29800000  0.25000000  0.91370000  1.0
  O  O1  1  0.29800000  0.75000000  0.41370000  1.0
  O  O1  1  0.29800000  0.75000000  0.91370000  1.0
  O  O1  1  0.79800000  0.25000000  0.41370000  1.0
  O  O1  1  0.79800000  0.25000000  0.91370000  1.0
  O  O1  1  0.79800000  0.75000000  0.41370000  1.0
  O  O1  1  0.79800000  0.75000000  0.91370000  1.0
  O  O1  1  0.16370000  0.25000000  0.45200000  1.0
  O  O1  1  0.16370000  0.25000000  0.95200000  1.0
  O  O1  1  0.16370000  0.75000000  0.45200000  1.0
  O  O1  1  0.16370000  0.75000000  0.95200000  1.0
  O  O1  1  0.66370000  0.25000000  0.45200000  1.0
  O  O1  1  0.66370000  0.25000000  0.95200000  1.0
  O  O1  1  0.66370000  0.75000000  0.45200000  1.0
  O  O1  1  0.66370000  0.75000000  0.95200000  1.0
  O  O1  1  0.20200000  0.25000000  0.08630000  1.0
  O  O1  1  0.20200000  0.25000000  0.58630000  1.0
  O  O1  1  0.20200000  0.75000000  0.08630000  1.0
  O  O1  1  0.20200000  0.75000000  0.58630000  1.0
  O  O1  1  0.70200000  0.25000000  0.08630000  1.0
  O  O1  1  0.70200000  0.25000000  0.58630000  1.0
  O  O1  1  0.70200000  0.75000000  0.08630000  1.0
  O  O1  1  0.70200000  0.75000000  0.58630000  1.0
  O  O1  1  0.29800000  0.33630000  0.00000000  1.0
  O  O1  1  0.29800000  0.33630000  0.50000000  1.0
  O  O1  1  0.29800000  0.83630000  0.00000000  1.0
  O  O1  1  0.29800000  0.83630000  0.50000000  1.0
  O  O1  1  0.79800000  0.33630000  0.00000000  1.0
  O  O1  1  0.79800000  0.33630000  0.50000000  1.0
  O  O1  1  0.79800000  0.83630000  0.00000000  1.0
  O  O1  1  0.79800000  0.83630000  0.50000000  1.0
  O  O1  1  0.25000000  0.29800000  0.08630000  1.0
  O  O1  1  0.25000000  0.29800000  0.58630000  1.0
  O  O1  1  0.25000000  0.79800000  0.08630000  1.0
  O  O1  1  0.25000000  0.79800000  0.58630000  1.0
  O  O1  1  0.75000000  0.29800000  0.08630000  1.0
  O  O1  1  0.75000000  0.29800000  0.58630000  1.0
  O  O1  1  0.75000000  0.79800000  0.08630000  1.0
  O  O1  1  0.75000000  0.79800000  0.58630000  1.0
  O  O1  1  0.25000000  0.20200000  0.08630000  1.0
  O  O1  1  0.25000000  0.20200000  0.58630000  1.0
  O  O1  1  0.25000000  0.70200000  0.08630000  1.0
  O  O1  1  0.25000000  0.70200000  0.58630000  1.0
  O  O1  1  0.75000000  0.20200000  0.08630000  1.0
  O  O1  1  0.75000000  0.20200000  0.58630000  1.0
  O  O1  1  0.75000000  0.70200000  0.08630000  1.0
  O  O1  1  0.75000000  0.70200000  0.58630000  1.0
  O  O1  1  0.29800000  0.16370000  0.00000000  1.0
  O  O1  1  0.29800000  0.16370000  0.50000000  1.0
  O  O1  1  0.29800000  0.66370000  0.00000000  1.0
  O  O1  1  0.29800000  0.66370000  0.50000000  1.0
  O  O1  1  0.79800000  0.16370000  0.00000000  1.0
  O  O1  1  0.79800000  0.16370000  0.50000000  1.0
  O  O1  1  0.79800000  0.66370000  0.00000000  1.0
  O  O1  1  0.79800000  0.66370000  0.50000000  1.0
  O  O1  1  0.25000000  0.29800000  0.41370000  1.0
  O  O1  1  0.25000000  0.29800000  0.91370000  1.0
  O  O1  1  0.25000000  0.79800000  0.41370000  1.0
  O  O1  1  0.25000000  0.79800000  0.91370000  1.0
  O  O1  1  0.75000000  0.29800000  0.41370000  1.0
  O  O1  1  0.75000000  0.29800000  0.91370000  1.0
  O  O1  1  0.75000000  0.79800000  0.41370000  1.0
  O  O1  1  0.75000000  0.79800000  0.91370000  1.0
  O  O1  1  0.20200000  0.16370000  0.00000000  1.0
  O  O1  1  0.20200000  0.16370000  0.50000000  1.0
  O  O1  1  0.20200000  0.66370000  0.00000000  1.0
  O  O1  1  0.20200000  0.66370000  0.50000000  1.0
  O  O1  1  0.70200000  0.16370000  0.00000000  1.0
  O  O1  1  0.70200000  0.16370000  0.50000000  1.0
  O  O1  1  0.70200000  0.66370000  0.00000000  1.0
  O  O1  1  0.70200000  0.66370000  0.50000000  1.0
  O  O1  1  0.20200000  0.33630000  0.00000000  1.0
  O  O1  1  0.20200000  0.33630000  0.50000000  1.0
  O  O1  1  0.20200000  0.83630000  0.00000000  1.0
  O  O1  1  0.20200000  0.83630000  0.50000000  1.0
  O  O1  1  0.70200000  0.33630000  0.00000000  1.0
  O  O1  1  0.70200000  0.33630000  0.50000000  1.0
  O  O1  1  0.70200000  0.83630000  0.00000000  1.0
  O  O1  1  0.70200000  0.83630000  0.50000000  1.0
  O  O1  1  0.25000000  0.20200000  0.41370000  1.0
  O  O1  1  0.25000000  0.20200000  0.91370000  1.0
  O  O1  1  0.25000000  0.70200000  0.41370000  1.0
  O  O1  1  0.25000000  0.70200000  0.91370000  1.0
  O  O1  1  0.75000000  0.20200000  0.41370000  1.0
  O  O1  1  0.75000000  0.20200000  0.91370000  1.0
  O  O1  1  0.75000000  0.70200000  0.41370000  1.0
  O  O1  1  0.75000000  0.70200000  0.91370000  1.0
  O  O1  1  0.25000000  0.33630000  0.45200000  1.0
  O  O1  1  0.25000000  0.33630000  0.95200000  1.0
  O  O1  1  0.25000000  0.83630000  0.45200000  1.0
  O  O1  1  0.25000000  0.83630000  0.95200000  1.0
  O  O1  1  0.75000000  0.33630000  0.45200000  1.0
  O  O1  1  0.75000000  0.33630000  0.95200000  1.0
  O  O1  1  0.75000000  0.83630000  0.45200000  1.0
  O  O1  1  0.75000000  0.83630000  0.95200000  1.0
  O  O1  1  0.25000000  0.16370000  0.45200000  1.0
  O  O1  1  0.25000000  0.16370000  0.95200000  1.0
  O  O1  1  0.25000000  0.66370000  0.45200000  1.0
  O  O1  1  0.25000000  0.66370000  0.95200000  1.0
  O  O1  1  0.75000000  0.16370000  0.45200000  1.0
  O  O1  1  0.75000000  0.16370000  0.95200000  1.0
  O  O1  1  0.75000000  0.66370000  0.45200000  1.0
  O  O1  1  0.75000000  0.66370000  0.95200000  1.0
  O  O1  1  0.16370000  0.29800000  0.00000000  1.0
  O  O1  1  0.16370000  0.29800000  0.50000000  1.0
  O  O1  1  0.16370000  0.79800000  0.00000000  1.0
  O  O1  1  0.16370000  0.79800000  0.50000000  1.0
  O  O1  1  0.66370000  0.29800000  0.00000000  1.0
  O  O1  1  0.66370000  0.29800000  0.50000000  1.0
  O  O1  1  0.66370000  0.79800000  0.00000000  1.0
  O  O1  1  0.66370000  0.79800000  0.50000000  1.0
  O  O1  1  0.16370000  0.20200000  0.00000000  1.0
  O  O1  1  0.16370000  0.20200000  0.50000000  1.0
  O  O1  1  0.16370000  0.70200000  0.00000000  1.0
  O  O1  1  0.16370000  0.70200000  0.50000000  1.0
  O  O1  1  0.66370000  0.20200000  0.00000000  1.0
  O  O1  1  0.66370000  0.20200000  0.50000000  1.0
  O  O1  1  0.66370000  0.70200000  0.00000000  1.0
  O  O1  1  0.66370000  0.70200000  0.50000000  1.0
  O  O1  1  0.29800000  0.25000000  0.08630000  1.0
  O  O1  1  0.29800000  0.25000000  0.58630000  1.0
  O  O1  1  0.29800000  0.75000000  0.08630000  1.0
  O  O1  1  0.29800000  0.75000000  0.58630000  1.0
  O  O1  1  0.79800000  0.25000000  0.08630000  1.0
  O  O1  1  0.79800000  0.25000000  0.58630000  1.0
  O  O1  1  0.79800000  0.75000000  0.08630000  1.0
  O  O1  1  0.79800000  0.75000000  0.58630000  1.0
  O  O1  1  0.20200000  0.25000000  0.41370000  1.0
  O  O1  1  0.20200000  0.25000000  0.91370000  1.0
  O  O1  1  0.20200000  0.75000000  0.41370000  1.0
  O  O1  1  0.20200000  0.75000000  0.91370000  1.0
  O  O1  1  0.70200000  0.25000000  0.41370000  1.0
  O  O1  1  0.70200000  0.25000000  0.91370000  1.0
  O  O1  1  0.70200000  0.75000000  0.41370000  1.0
  O  O1  1  0.70200000  0.75000000  0.91370000  1.0
  O  O2  1  0.02805000  0.47195000  0.47195000  1.0
  O  O2  1  0.02805000  0.47195000  0.97195000  1.0
  O  O2  1  0.02805000  0.97195000  0.47195000  1.0
  O  O2  1  0.02805000  0.97195000  0.97195000  1.0
  O  O2  1  0.52805000  0.47195000  0.47195000  1.0
  O  O2  1  0.52805000  0.47195000  0.97195000  1.0
  O  O2  1  0.52805000  0.97195000  0.47195000  1.0
  O  O2  1  0.52805000  0.97195000  0.97195000  1.0
  O  O2  1  0.02805000  0.02805000  0.47195000  1.0
  O  O2  1  0.02805000  0.02805000  0.97195000  1.0
  O  O2  1  0.02805000  0.52805000  0.47195000  1.0
  O  O2  1  0.02805000  0.52805000  0.97195000  1.0
  O  O2  1  0.52805000  0.02805000  0.47195000  1.0
  O  O2  1  0.52805000  0.02805000  0.97195000  1.0
  O  O2  1  0.52805000  0.52805000  0.47195000  1.0
  O  O2  1  0.52805000  0.52805000  0.97195000  1.0
  O  O2  1  0.47195000  0.02805000  0.47195000  1.0
  O  O2  1  0.47195000  0.02805000  0.97195000  1.0
  O  O2  1  0.47195000  0.52805000  0.47195000  1.0
  O  O2  1  0.47195000  0.52805000  0.97195000  1.0
  O  O2  1  0.97195000  0.02805000  0.47195000  1.0
  O  O2  1  0.97195000  0.02805000  0.97195000  1.0
  O  O2  1  0.97195000  0.52805000  0.47195000  1.0
  O  O2  1  0.97195000  0.52805000  0.97195000  1.0
  O  O2  1  0.47195000  0.47195000  0.47195000  1.0
  O  O2  1  0.47195000  0.47195000  0.97195000  1.0
  O  O2  1  0.47195000  0.97195000  0.47195000  1.0
  O  O2  1  0.47195000  0.97195000  0.97195000  1.0
  O  O2  1  0.97195000  0.47195000  0.47195000  1.0
  O  O2  1  0.97195000  0.47195000  0.97195000  1.0
  O  O2  1  0.97195000  0.97195000  0.47195000  1.0
  O  O2  1  0.97195000  0.97195000  0.97195000  1.0
  O  O2  1  0.02805000  0.02805000  0.02805000  1.0
  O  O2  1  0.02805000  0.02805000  0.52805000  1.0
  O  O2  1  0.02805000  0.52805000  0.02805000  1.0
  O  O2  1  0.02805000  0.52805000  0.52805000  1.0
  O  O2  1  0.52805000  0.02805000  0.02805000  1.0
  O  O2  1  0.52805000  0.02805000  0.52805000  1.0
  O  O2  1  0.52805000  0.52805000  0.02805000  1.0
  O  O2  1  0.52805000  0.52805000  0.52805000  1.0
  O  O2  1  0.02805000  0.47195000  0.02805000  1.0
  O  O2  1  0.02805000  0.47195000  0.52805000  1.0
  O  O2  1  0.02805000  0.97195000  0.02805000  1.0
  O  O2  1  0.02805000  0.97195000  0.52805000  1.0
  O  O2  1  0.52805000  0.47195000  0.02805000  1.0
  O  O2  1  0.52805000  0.47195000  0.52805000  1.0
  O  O2  1  0.52805000  0.97195000  0.02805000  1.0
  O  O2  1  0.52805000  0.97195000  0.52805000  1.0
  O  O2  1  0.47195000  0.47195000  0.02805000  1.0
  O  O2  1  0.47195000  0.47195000  0.52805000  1.0
  O  O2  1  0.47195000  0.97195000  0.02805000  1.0
  O  O2  1  0.47195000  0.97195000  0.52805000  1.0
  O  O2  1  0.97195000  0.47195000  0.02805000  1.0
  O  O2  1  0.97195000  0.47195000  0.52805000  1.0
  O  O2  1  0.97195000  0.97195000  0.02805000  1.0
  O  O2  1  0.97195000  0.97195000  0.52805000  1.0
  O  O2  1  0.47195000  0.02805000  0.02805000  1.0
  O  O2  1  0.47195000  0.02805000  0.52805000  1.0
  O  O2  1  0.47195000  0.52805000  0.02805000  1.0
  O  O2  1  0.47195000  0.52805000  0.52805000  1.0
  O  O2  1  0.97195000  0.02805000  0.02805000  1.0
  O  O2  1  0.97195000  0.02805000  0.52805000  1.0
  O  O2  1  0.97195000  0.52805000  0.02805000  1.0
  O  O2  1  0.97195000  0.52805000  0.52805000  1.0
  O  O2  1  0.02805000  0.22195000  0.22195000  1.0
  O  O2  1  0.02805000  0.22195000  0.72195000  1.0
  O  O2  1  0.02805000  0.72195000  0.22195000  1.0
  O  O2  1  0.02805000  0.72195000  0.72195000  1.0
  O  O2  1  0.52805000  0.22195000  0.22195000  1.0
  O  O2  1  0.52805000  0.22195000  0.72195000  1.0
  O  O2  1  0.52805000  0.72195000  0.22195000  1.0
  O  O2  1  0.52805000  0.72195000  0.72195000  1.0
  O  O2  1  0.02805000  0.27805000  0.22195000  1.0
  O  O2  1  0.02805000  0.27805000  0.72195000  1.0
  O  O2  1  0.02805000  0.77805000  0.22195000  1.0
  O  O2  1  0.02805000  0.77805000  0.72195000  1.0
  O  O2  1  0.52805000  0.27805000  0.22195000  1.0
  O  O2  1  0.52805000  0.27805000  0.72195000  1.0
  O  O2  1  0.52805000  0.77805000  0.22195000  1.0
  O  O2  1  0.52805000  0.77805000  0.72195000  1.0
  O  O2  1  0.47195000  0.27805000  0.22195000  1.0
  O  O2  1  0.47195000  0.27805000  0.72195000  1.0
  O  O2  1  0.47195000  0.77805000  0.22195000  1.0
  O  O2  1  0.47195000  0.77805000  0.72195000  1.0
  O  O2  1  0.97195000  0.27805000  0.22195000  1.0
  O  O2  1  0.97195000  0.27805000  0.72195000  1.0
  O  O2  1  0.97195000  0.77805000  0.22195000  1.0
  O  O2  1  0.97195000  0.77805000  0.72195000  1.0
  O  O2  1  0.47195000  0.22195000  0.22195000  1.0
  O  O2  1  0.47195000  0.22195000  0.72195000  1.0
  O  O2  1  0.47195000  0.72195000  0.22195000  1.0
  O  O2  1  0.47195000  0.72195000  0.72195000  1.0
  O  O2  1  0.97195000  0.22195000  0.22195000  1.0
  O  O2  1  0.97195000  0.22195000  0.72195000  1.0
  O  O2  1  0.97195000  0.72195000  0.22195000  1.0
  O  O2  1  0.97195000  0.72195000  0.72195000  1.0
  O  O2  1  0.02805000  0.27805000  0.27805000  1.0
  O  O2  1  0.02805000  0.27805000  0.77805000  1.0
  O  O2  1  0.02805000  0.77805000  0.27805000  1.0
  O  O2  1  0.02805000  0.77805000  0.77805000  1.0
  O  O2  1  0.52805000  0.27805000  0.27805000  1.0
  O  O2  1  0.52805000  0.27805000  0.77805000  1.0
  O  O2  1  0.52805000  0.77805000  0.27805000  1.0
  O  O2  1  0.52805000  0.77805000  0.77805000  1.0
  O  O2  1  0.02805000  0.22195000  0.27805000  1.0
  O  O2  1  0.02805000  0.22195000  0.77805000  1.0
  O  O2  1  0.02805000  0.72195000  0.27805000  1.0
  O  O2  1  0.02805000  0.72195000  0.77805000  1.0
  O  O2  1  0.52805000  0.22195000  0.27805000  1.0
  O  O2  1  0.52805000  0.22195000  0.77805000  1.0
  O  O2  1  0.52805000  0.72195000  0.27805000  1.0
  O  O2  1  0.52805000  0.72195000  0.77805000  1.0
  O  O2  1  0.47195000  0.22195000  0.27805000  1.0
  O  O2  1  0.47195000  0.22195000  0.77805000  1.0
  O  O2  1  0.47195000  0.72195000  0.27805000  1.0
  O  O2  1  0.47195000  0.72195000  0.77805000  1.0
  O  O2  1  0.97195000  0.22195000  0.27805000  1.0
  O  O2  1  0.97195000  0.22195000  0.77805000  1.0
  O  O2  1  0.97195000  0.72195000  0.27805000  1.0
  O  O2  1  0.97195000  0.72195000  0.77805000  1.0
  O  O2  1  0.47195000  0.27805000  0.27805000  1.0
  O  O2  1  0.47195000  0.27805000  0.77805000  1.0
  O  O2  1  0.47195000  0.77805000  0.27805000  1.0
  O  O2  1  0.47195000  0.77805000  0.77805000  1.0
  O  O2  1  0.97195000  0.27805000  0.27805000  1.0
  O  O2  1  0.97195000  0.27805000  0.77805000  1.0
  O  O2  1  0.97195000  0.77805000  0.27805000  1.0
  O  O2  1  0.97195000  0.77805000  0.77805000  1.0
  O  O2  1  0.27805000  0.47195000  0.22195000  1.0
  O  O2  1  0.27805000  0.47195000  0.72195000  1.0
  O  O2  1  0.27805000  0.97195000  0.22195000  1.0
  O  O2  1  0.27805000  0.97195000  0.72195000  1.0
  O  O2  1  0.77805000  0.47195000  0.22195000  1.0
  O  O2  1  0.77805000  0.47195000  0.72195000  1.0
  O  O2  1  0.77805000  0.97195000  0.22195000  1.0
  O  O2  1  0.77805000  0.97195000  0.72195000  1.0
  O  O2  1  0.27805000  0.02805000  0.22195000  1.0
  O  O2  1  0.27805000  0.02805000  0.72195000  1.0
  O  O2  1  0.27805000  0.52805000  0.22195000  1.0
  O  O2  1  0.27805000  0.52805000  0.72195000  1.0
  O  O2  1  0.77805000  0.02805000  0.22195000  1.0
  O  O2  1  0.77805000  0.02805000  0.72195000  1.0
  O  O2  1  0.77805000  0.52805000  0.22195000  1.0
  O  O2  1  0.77805000  0.52805000  0.72195000  1.0
  O  O2  1  0.22195000  0.02805000  0.22195000  1.0
  O  O2  1  0.22195000  0.02805000  0.72195000  1.0
  O  O2  1  0.22195000  0.52805000  0.22195000  1.0
  O  O2  1  0.22195000  0.52805000  0.72195000  1.0
  O  O2  1  0.72195000  0.02805000  0.22195000  1.0
  O  O2  1  0.72195000  0.02805000  0.72195000  1.0
  O  O2  1  0.72195000  0.52805000  0.22195000  1.0
  O  O2  1  0.72195000  0.52805000  0.72195000  1.0
  O  O2  1  0.22195000  0.47195000  0.22195000  1.0
  O  O2  1  0.22195000  0.47195000  0.72195000  1.0
  O  O2  1  0.22195000  0.97195000  0.22195000  1.0
  O  O2  1  0.22195000  0.97195000  0.72195000  1.0
  O  O2  1  0.72195000  0.47195000  0.22195000  1.0
  O  O2  1  0.72195000  0.47195000  0.72195000  1.0
  O  O2  1  0.72195000  0.97195000  0.22195000  1.0
  O  O2  1  0.72195000  0.97195000  0.72195000  1.0
  O  O2  1  0.27805000  0.02805000  0.27805000  1.0
  O  O2  1  0.27805000  0.02805000  0.77805000  1.0
  O  O2  1  0.27805000  0.52805000  0.27805000  1.0
  O  O2  1  0.27805000  0.52805000  0.77805000  1.0
  O  O2  1  0.77805000  0.02805000  0.27805000  1.0
  O  O2  1  0.77805000  0.02805000  0.77805000  1.0
  O  O2  1  0.77805000  0.52805000  0.27805000  1.0
  O  O2  1  0.77805000  0.52805000  0.77805000  1.0
  O  O2  1  0.27805000  0.47195000  0.27805000  1.0
  O  O2  1  0.27805000  0.47195000  0.77805000  1.0
  O  O2  1  0.27805000  0.97195000  0.27805000  1.0
  O  O2  1  0.27805000  0.97195000  0.77805000  1.0
  O  O2  1  0.77805000  0.47195000  0.27805000  1.0
  O  O2  1  0.77805000  0.47195000  0.77805000  1.0
  O  O2  1  0.77805000  0.97195000  0.27805000  1.0
  O  O2  1  0.77805000  0.97195000  0.77805000  1.0
  O  O2  1  0.22195000  0.47195000  0.27805000  1.0
  O  O2  1  0.22195000  0.47195000  0.77805000  1.0
  O  O2  1  0.22195000  0.97195000  0.27805000  1.0
  O  O2  1  0.22195000  0.97195000  0.77805000  1.0
  O  O2  1  0.72195000  0.47195000  0.27805000  1.0
  O  O2  1  0.72195000  0.47195000  0.77805000  1.0
  O  O2  1  0.72195000  0.97195000  0.27805000  1.0
  O  O2  1  0.72195000  0.97195000  0.77805000  1.0
  O  O2  1  0.22195000  0.02805000  0.27805000  1.0
  O  O2  1  0.22195000  0.02805000  0.77805000  1.0
  O  O2  1  0.22195000  0.52805000  0.27805000  1.0
  O  O2  1  0.22195000  0.52805000  0.77805000  1.0
  O  O2  1  0.72195000  0.02805000  0.27805000  1.0
  O  O2  1  0.72195000  0.02805000  0.77805000  1.0
  O  O2  1  0.72195000  0.52805000  0.27805000  1.0
  O  O2  1  0.72195000  0.52805000  0.77805000  1.0
  O  O2  1  0.27805000  0.22195000  0.47195000  1.0
  O  O2  1  0.27805000  0.22195000  0.97195000  1.0
  O  O2  1  0.27805000  0.72195000  0.47195000  1.0
  O  O2  1  0.27805000  0.72195000  0.97195000  1.0
  O  O2  1  0.77805000  0.22195000  0.47195000  1.0
  O  O2  1  0.77805000  0.22195000  0.97195000  1.0
  O  O2  1  0.77805000  0.72195000  0.47195000  1.0
  O  O2  1  0.77805000  0.72195000  0.97195000  1.0
  O  O2  1  0.27805000  0.27805000  0.47195000  1.0
  O  O2  1  0.27805000  0.27805000  0.97195000  1.0
  O  O2  1  0.27805000  0.77805000  0.47195000  1.0
  O  O2  1  0.27805000  0.77805000  0.97195000  1.0
  O  O2  1  0.77805000  0.27805000  0.47195000  1.0
  O  O2  1  0.77805000  0.27805000  0.97195000  1.0
  O  O2  1  0.77805000  0.77805000  0.47195000  1.0
  O  O2  1  0.77805000  0.77805000  0.97195000  1.0
  O  O2  1  0.22195000  0.27805000  0.47195000  1.0
  O  O2  1  0.22195000  0.27805000  0.97195000  1.0
  O  O2  1  0.22195000  0.77805000  0.47195000  1.0
  O  O2  1  0.22195000  0.77805000  0.97195000  1.0
  O  O2  1  0.72195000  0.27805000  0.47195000  1.0
  O  O2  1  0.72195000  0.27805000  0.97195000  1.0
  O  O2  1  0.72195000  0.77805000  0.47195000  1.0
  O  O2  1  0.72195000  0.77805000  0.97195000  1.0
  O  O2  1  0.22195000  0.22195000  0.47195000  1.0
  O  O2  1  0.22195000  0.22195000  0.97195000  1.0
  O  O2  1  0.22195000  0.72195000  0.47195000  1.0
  O  O2  1  0.22195000  0.72195000  0.97195000  1.0
  O  O2  1  0.72195000  0.22195000  0.47195000  1.0
  O  O2  1  0.72195000  0.22195000  0.97195000  1.0
  O  O2  1  0.72195000  0.72195000  0.47195000  1.0
  O  O2  1  0.72195000  0.72195000  0.97195000  1.0
  O  O2  1  0.27805000  0.27805000  0.02805000  1.0
  O  O2  1  0.27805000  0.27805000  0.52805000  1.0
  O  O2  1  0.27805000  0.77805000  0.02805000  1.0
  O  O2  1  0.27805000  0.77805000  0.52805000  1.0
  O  O2  1  0.77805000  0.27805000  0.02805000  1.0
  O  O2  1  0.77805000  0.27805000  0.52805000  1.0
  O  O2  1  0.77805000  0.77805000  0.02805000  1.0
  O  O2  1  0.77805000  0.77805000  0.52805000  1.0
  O  O2  1  0.27805000  0.22195000  0.02805000  1.0
  O  O2  1  0.27805000  0.22195000  0.52805000  1.0
  O  O2  1  0.27805000  0.72195000  0.02805000  1.0
  O  O2  1  0.27805000  0.72195000  0.52805000  1.0
  O  O2  1  0.77805000  0.22195000  0.02805000  1.0
  O  O2  1  0.77805000  0.22195000  0.52805000  1.0
  O  O2  1  0.77805000  0.72195000  0.02805000  1.0
  O  O2  1  0.77805000  0.72195000  0.52805000  1.0
  O  O2  1  0.22195000  0.22195000  0.02805000  1.0
  O  O2  1  0.22195000  0.22195000  0.52805000  1.0
  O  O2  1  0.22195000  0.72195000  0.02805000  1.0
  O  O2  1  0.22195000  0.72195000  0.52805000  1.0
  O  O2  1  0.72195000  0.22195000  0.02805000  1.0
  O  O2  1  0.72195000  0.22195000  0.52805000  1.0
  O  O2  1  0.72195000  0.72195000  0.02805000  1.0
  O  O2  1  0.72195000  0.72195000  0.52805000  1.0
  O  O2  1  0.22195000  0.27805000  0.02805000  1.0
  O  O2  1  0.22195000  0.27805000  0.52805000  1.0
  O  O2  1  0.22195000  0.77805000  0.02805000  1.0
  O  O2  1  0.22195000  0.77805000  0.52805000  1.0
  O  O2  1  0.72195000  0.27805000  0.02805000  1.0
  O  O2  1  0.72195000  0.27805000  0.52805000  1.0
  O  O2  1  0.72195000  0.77805000  0.02805000  1.0
  O  O2  1  0.72195000  0.77805000  0.52805000  1.0
